
     RDKit          3D

 20 21  0  0  0  0  0  0  0  0999 V2000
    0.5725    1.0531    1.8777 C   0  0  0  0  0  0  0  0  0  0  0  0
    0.0894    0.0815    1.1305 C   0  0  0  0  0  0  0  0  0  0  0  0
    0.4036    0.9913    3.1845 C   0  0  0  0  0  0  0  0  0  0  0  0
   -4.5357   -1.7493    4.6332 C   0  0  0  0  0  0  0  0  0  0  0  0
   -4.4666   -2.7614    3.4725 C   0  0  0  0  0  0  0  0  0  0  0  0
   -1.3580   -0.4238    2.8399 C   0  0  0  0  0  0  0  0  0  0  0  0
   -2.7304   -1.2813    3.4556 C   0  0  0  0  0  0  0  0  0  0  0  0
   -2.3319   -3.4093    1.9686 C   0  0  0  0  0  0  0  0  0  0  0  0
   -0.9721   -0.5860    1.4931 N   0  0  0  0  0  0  0  0  0  0  0  0
   -0.6278    0.3980    3.6990 N   0  0  0  0  0  0  0  0  0  0  0  0
   -3.4442   -0.9017    4.5934 N   0  0  0  0  0  0  0  0  0  0  0  0
   -3.2951   -2.4355    2.7183 N   0  0  0  0  0  0  0  0  0  0  0  0
    1.5749    1.4701    1.5400 H   0  0  0  0  0  0  0  0  0  0  0  0
    0.1572    0.2046    0.0839 H   0  0  0  0  0  0  0  0  0  0  0  0
    0.7156    1.8288    3.7470 H   0  0  0  0  0  0  0  0  0  0  0  0
   -4.8859   -2.0120    5.6156 H   0  0  0  0  0  0  0  0  0  0  0  0
   -4.6892   -3.8284    3.5793 H   0  0  0  0  0  0  0  0  0  0  0  0
   -2.6512   -3.4458    0.8697 H   0  0  0  0  0  0  0  0  0  0  0  0
   -1.2652   -3.0092    2.0554 H   0  0  0  0  0  0  0  0  0  0  0  0
   -2.4121   -4.4410    2.4582 H   0  0  0  0  0  0  0  0  0  0  0  0
  1  2  2  0
  1  3  1  0
  1 13  1  0
  2  9  1  0
  2 14  1  0
  3 10  2  0
  3 15  1  0
  4  5  2  0
  4 11  1  0
  4 16  1  0
  5 12  1  0
  5 17  1  0
  6  7  1  0
  6  9  2  0
  6 10  1  0
  7 11  2  0
  7 12  1  0
  8 12  1  0
  8 18  1  0
  8 19  1  0
  8 20  1  0
M  END
$$$$
