
     RDKit          3D

 33 35  0  0  0  0  0  0  0  0999 V2000
    0.2935   -1.6461   -0.5029 C   0  0  0  0  0  0  0  0  0  0  0  0
    1.1478    1.0298   -0.5382 C   0  0  0  0  0  0  0  0  0  0  0  0
    1.3287   -1.3019    0.3440 C   0  0  0  0  0  0  0  0  0  0  0  0
    1.8453    0.0889    0.2642 C   0  0  0  0  0  0  0  0  0  0  0  0
   -0.6052   -0.6005   -0.6935 C   0  0  0  0  0  0  0  0  0  0  0  0
   -0.1763    0.7915   -0.6254 C   0  0  0  0  0  0  0  0  0  0  0  0
   -2.8876    0.5681   -1.8268 C   0  0  0  0  0  0  0  0  0  0  0  0
    2.1015   -2.3453    1.0922 C   0  0  0  0  0  0  0  0  0  0  0  0
    2.9878    0.5200    1.1454 C   0  0  0  0  0  0  0  0  0  0  0  0
    2.9808   -1.7403    2.2136 C   0  0  0  0  0  0  0  0  0  0  0  0
    3.8766   -0.6653    1.5993 C   0  0  0  0  0  0  0  0  0  0  0  0
   -2.2447    1.6900   -0.9257 C   0  0  1  0  0  0  0  0  0  0  0  0
   -2.6234    1.5887    0.6058 C   0  0  0  0  0  0  0  0  0  0  0  0
   -2.2201   -0.8107   -1.1374 N   0  0  0  0  0  0  0  0  0  0  0  0
   -4.5185    0.6280   -1.7068 N   0  0  0  0  0  0  0  0  0  0  0  0
   -0.9015    1.7125   -1.1521 O   0  0  0  0  0  0  0  0  0  0  0  0
   -0.2139   -2.6010   -0.2333 H   0  0  0  0  0  0  0  0  0  0  0  0
    1.4247    2.1265   -0.3650 H   0  0  0  0  0  0  0  0  0  0  0  0
    1.3212   -3.1430    1.5492 H   0  0  0  0  0  0  0  0  0  0  0  0
    2.8098   -2.9081    0.2938 H   0  0  0  0  0  0  0  0  0  0  0  0
    3.6429    1.3363    0.5459 H   0  0  0  0  0  0  0  0  0  0  0  0
    2.5073    1.0481    2.1176 H   0  0  0  0  0  0  0  0  0  0  0  0
    2.3022   -1.2717    3.0340 H   0  0  0  0  0  0  0  0  0  0  0  0
    3.6474   -2.5876    2.6490 H   0  0  0  0  0  0  0  0  0  0  0  0
    4.4476   -1.0988    0.6831 H   0  0  0  0  0  0  0  0  0  0  0  0
    4.6132   -0.2761    2.4103 H   0  0  0  0  0  0  0  0  0  0  0  0
   -2.5507    2.6185   -1.4119 H   0  0  0  0  0  0  0  0  0  0  0  0
   -2.2556    0.5429    1.0065 H   0  0  0  0  0  0  0  0  0  0  0  0
   -3.7983    1.6836    0.6633 H   0  0  0  0  0  0  0  0  0  0  0  0
   -2.0680    2.4861    1.1365 H   0  0  0  0  0  0  0  0  0  0  0  0
   -2.4978   -1.9231   -1.6268 H   0  0  0  0  0  0  0  0  0  0  0  0
   -5.0719   -0.2570   -2.4470 H   0  0  0  0  0  0  0  0  0  0  0  0
   -4.9692    1.7768   -2.0503 H   0  0  0  0  0  0  0  0  0  0  0  0
  1  3  2  0
  1  5  1  0
  1 17  1  0
  2  4  2  0
  2  6  1  0
  2 18  1  0
  3  4  1  0
  3  8  1  0
  4  9  1  0
  5  6  2  0
  5 14  1  0
  6 16  1  0
  7 12  1  0
  7 14  2  0
  7 15  1  0
  8 10  1  0
  8 19  1  0
  8 20  1  0
  9 11  1  0
  9 21  1  0
  9 22  1  0
 10 11  1  0
 10 23  1  0
 10 24  1  0
 11 25  1  0
 11 26  1  0
 12 13  1  0
 12 16  1  0
 12 27  1  6
 13 28  1  0
 13 29  1  0
 13 30  1  0
 14 31  1  0
 15 32  1  0
 15 33  1  0
M  CHG  1  14   1
M  END
$$$$
