
     RDKit          3D

 41 43  0  0  0  0  0  0  0  0999 V2000
    2.4183   -2.2001   -8.3801 C   0  0  0  0  0  0  0  0  0  0  0  0
    5.5451   -3.7019   -7.1009 C   0  0  0  0  0  0  0  0  0  0  0  0
    2.3700   -0.9794   -7.8620 C   0  0  0  0  0  0  0  0  0  0  0  0
    5.2338   -4.5625   -8.3608 C   0  0  0  0  0  0  0  0  0  0  0  0
    4.6502   -2.4994   -7.2621 C   0  0  0  0  0  0  0  0  0  0  0  0
    3.5946   -2.7906   -8.3118 C   0  0  0  0  0  0  0  0  0  0  0  0
    4.1978   -1.2000   -6.3889 C   0  0  0  0  0  0  0  0  0  0  0  0
   -0.1561   -2.1750   -4.0575 C   0  0  0  0  0  0  0  0  0  0  0  0
   -0.3688   -2.2319   -2.4099 C   0  0  0  0  0  0  0  0  0  0  0  0
    0.4865   -0.7150   -4.3206 C   0  0  0  0  0  0  0  0  0  0  0  0
    1.0107   -1.6302   -1.8424 C   0  0  0  0  0  0  0  0  0  0  0  0
    6.2212   -1.2052   -5.3040 C   0  0  0  0  0  0  0  0  0  0  0  0
    3.3195    0.8705   -4.1593 C   0  0  0  0  0  0  0  0  0  0  0  0
    4.6424    0.6144   -4.9493 C   0  0  0  0  0  0  0  0  0  0  0  0
    3.0292   -0.3021   -3.2533 C   0  0  0  0  0  0  0  0  0  0  0  0
    3.0492   -0.6001   -6.7439 N   0  0  0  0  0  0  0  0  0  0  0  0
    4.8354   -0.7842   -5.3667 N   0  0  0  0  0  0  0  0  0  0  0  0
    1.3727   -0.3636   -2.9059 N   0  0  0  0  0  0  0  0  0  0  0  0
    3.8710   -4.1246   -8.9062 O   0  0  0  0  0  0  0  0  0  0  0  0
    1.8328   -2.4535   -9.3155 H   0  0  0  0  0  0  0  0  0  0  0  0
    6.6318   -3.4934   -6.7738 H   0  0  0  0  0  0  0  0  0  0  0  0
    1.4379   -0.4839   -7.9249 H   0  0  0  0  0  0  0  0  0  0  0  0
    5.3776   -5.5148   -8.4262 H   0  0  0  0  0  0  0  0  0  0  0  0
    0.6341   -3.0157   -4.3903 H   0  0  0  0  0  0  0  0  0  0  0  0
   -1.1824   -2.3262   -4.6619 H   0  0  0  0  0  0  0  0  0  0  0  0
   -1.2773   -1.5140   -2.0929 H   0  0  0  0  0  0  0  0  0  0  0  0
   -0.5735   -3.3436   -2.0048 H   0  0  0  0  0  0  0  0  0  0  0  0
    1.1777   -0.7131   -5.2454 H   0  0  0  0  0  0  0  0  0  0  0  0
   -0.3387    0.0806   -4.4513 H   0  0  0  0  0  0  0  0  0  0  0  0
    0.9073   -1.2447   -0.7594 H   0  0  0  0  0  0  0  0  0  0  0  0
    1.8506   -2.4194   -1.9002 H   0  0  0  0  0  0  0  0  0  0  0  0
    6.7717   -0.6223   -4.4719 H   0  0  0  0  0  0  0  0  0  0  0  0
    6.7181   -1.0270   -6.3341 H   0  0  0  0  0  0  0  0  0  0  0  0
    6.2356   -2.3309   -5.0515 H   0  0  0  0  0  0  0  0  0  0  0  0
    2.4602    1.0017   -4.9152 H   0  0  0  0  0  0  0  0  0  0  0  0
    3.4271    1.8405   -3.5436 H   0  0  0  0  0  0  0  0  0  0  0  0
    4.6425    1.2927   -5.9005 H   0  0  0  0  0  0  0  0  0  0  0  0
    5.5371    0.9478   -4.2794 H   0  0  0  0  0  0  0  0  0  0  0  0
    3.3395   -1.3154   -3.7776 H   0  0  0  0  0  0  0  0  0  0  0  0
    3.6454   -0.1956   -2.2497 H   0  0  0  0  0  0  0  0  0  0  0  0
    1.0602    0.5667   -2.5161 H   0  0  0  0  0  0  0  0  0  0  0  0
  1  3  2  0
  1  6  1  0
  1 20  1  0
  2  4  2  0
  2  5  1  0
  2 21  1  0
  3 16  1  0
  3 22  1  0
  4 19  1  0
  4 23  1  0
  5  6  2  0
  5  7  1  0
  6 19  1  0
  7 16  2  0
  7 17  1  0
  8  9  1  0
  8 10  1  0
  8 24  1  0
  8 25  1  0
  9 11  1  0
  9 26  1  0
  9 27  1  0
 10 18  1  0
 10 28  1  0
 10 29  1  0
 11 18  1  0
 11 30  1  0
 11 31  1  0
 12 17  1  0
 12 32  1  0
 12 33  1  0
 12 34  1  0
 13 14  1  0
 13 15  1  0
 13 35  1  0
 13 36  1  0
 14 17  1  0
 14 37  1  0
 14 38  1  0
 15 18  1  0
 15 39  1  0
 15 40  1  0
 18 41  1  0
M  CHG  1  18   1
M  END
$$$$
