
     RDKit          3D

 23 23  0  0  0  0  0  0  0  0999 V2000
    4.0964   -2.3326   -0.3841 C   0  0  0  0  0  0  0  0  0  0  0  0
    1.7336   -1.2346   -0.1887 C   0  0  0  0  0  0  0  0  0  0  0  0
    0.6824   -1.0198    0.5449 C   0  0  0  0  0  0  0  0  0  0  0  0
    1.9975   -0.8796    2.6675 C   0  0  0  0  0  0  0  0  0  0  0  0
    2.9120   -1.5515    0.4463 C   0  0  0  0  0  0  0  0  0  0  0  0
    3.1718   -1.1823    1.9182 C   0  0  0  0  0  0  0  0  0  0  0  0
    0.7814   -0.6434    1.8879 C   0  0  0  0  0  0  0  0  0  0  0  0
    6.1448   -1.8532    4.0581 C   0  0  0  0  0  0  0  0  0  0  0  0
    4.5552   -1.3689    3.7548 C   0  0  0  0  0  0  0  0  0  0  0  0
    4.6199   -3.0037   -1.7216 N   0  0  0  0  0  0  0  0  0  0  0  0
   -1.9878    0.8127    1.1261 O   0  0  0  0  0  0  0  0  0  0  0  0
   -1.0157   -0.4343    4.4846 O   0  0  0  0  0  0  0  0  0  0  0  0
    4.3067   -1.5432    2.3253 O   0  0  0  0  0  0  0  0  0  0  0  0
   -0.5776    0.5032    2.6618 S   0  0  0  0  0  0  0  0  0  0  0  0
    0.5482    2.5859    3.8620 Cl  0  0  0  0  0  0  0  0  0  0  0  0
    1.6056   -1.8607   -1.1262 H   0  0  0  0  0  0  0  0  0  0  0  0
   -0.3509   -0.8064    0.0133 H   0  0  0  0  0  0  0  0  0  0  0  0
    2.0902   -0.4796    3.8344 H   0  0  0  0  0  0  0  0  0  0  0  0
    6.2538   -3.0062    3.7260 H   0  0  0  0  0  0  0  0  0  0  0  0
    6.8785   -1.1629    3.3975 H   0  0  0  0  0  0  0  0  0  0  0  0
    6.3708   -1.7204    5.2338 H   0  0  0  0  0  0  0  0  0  0  0  0
    4.3210   -0.2218    3.9849 H   0  0  0  0  0  0  0  0  0  0  0  0
    3.7204   -2.0189    4.3063 H   0  0  0  0  0  0  0  0  0  0  0  0
  1  5  1  0
  1 10  3  0
  2  3  2  0
  2  5  1  0
  2 16  1  0
  3  7  1  0
  3 17  1  0
  4  6  1  0
  4  7  2  0
  4 18  1  0
  5  6  2  0
  6 13  1  0
  7 14  1  0
  8  9  1  0
  8 19  1  0
  8 20  1  0
  8 21  1  0
  9 13  1  0
  9 22  1  0
  9 23  1  0
 11 14  2  0
 12 14  2  0
 14 15  1  0
M  END
$$$$
