
     RDKit          3D

 51 54  0  0  0  0  0  0  0  0999 V2000
   -2.1311   -3.0300   -3.8612 C   0  0  0  0  0  0  0  0  0  0  0  0
   -3.3166   -1.1195   -4.8108 C   0  0  0  0  0  0  0  0  0  0  0  0
   -2.4434   -1.4964   -3.9018 C   0  0  0  0  0  0  0  0  0  0  0  0
   -3.7932    0.1297   -4.8008 C   0  0  0  0  0  0  0  0  0  0  0  0
   -3.2041    1.1138   -3.7861 C   0  0  0  0  0  0  0  0  0  0  0  0
   -1.6946   -0.2871   -3.0703 C   0  0  0  0  0  0  0  0  0  0  0  0
   -0.2535   -0.3554    0.8692 C   0  0  0  0  0  0  0  0  0  0  0  0
    1.4446    1.9847    0.7147 C   0  0  0  0  0  0  0  0  0  0  0  0
   -0.2331   -1.6210    4.0568 C   0  0  0  0  0  0  0  0  0  0  0  0
   -1.4700   -1.0116    4.9839 C   0  0  0  0  0  0  0  0  0  0  0  0
    1.8089    0.7050   -0.0015 C   0  0  0  0  0  0  0  0  0  0  0  0
    0.9923   -1.4195   -0.8519 C   0  0  0  0  0  0  0  0  0  0  0  0
    0.6811    1.5399    1.9451 C   0  0  0  0  0  0  0  0  0  0  0  0
   -0.2055   -1.7592   -1.8918 C   0  0  0  0  0  0  0  0  0  0  0  0
   -0.2953    0.5385   -1.2686 C   0  0  0  0  0  0  0  0  0  0  0  0
   -0.5978   -0.0288    4.0227 C   0  0  0  0  0  0  0  0  0  0  0  0
    0.5595   -0.1389   -0.2108 C   0  0  1  0  0  0  0  0  0  0  0  0
   -4.9664    0.5544   -5.5587 C   0  0  0  0  0  0  0  0  0  0  0  0
   -3.7572    2.5030   -3.6456 C   0  0  0  0  0  0  0  0  0  0  0  0
   -1.2773    0.4489    2.7311 C   0  0  0  0  0  0  0  0  0  0  0  0
   -1.2667   -4.3225   -4.0588 N   0  0  0  0  0  0  0  0  0  0  0  0
   -2.2027    0.8757   -3.1220 N   0  0  0  0  0  0  0  0  0  0  0  0
   -0.7124   -0.4901   -2.2666 N   0  0  0  0  0  0  0  0  0  0  0  0
   -0.3836    0.6053    1.6197 N   0  0  0  0  0  0  0  0  0  0  0  0
   -1.0960   -1.2337    0.7216 O   0  0  0  0  0  0  0  0  0  0  0  0
   -3.8974   -1.9213   -5.3539 H   0  0  0  0  0  0  0  0  0  0  0  0
    2.3972    2.5580    1.0449 H   0  0  0  0  0  0  0  0  0  0  0  0
    0.7520    2.6489    0.0627 H   0  0  0  0  0  0  0  0  0  0  0  0
    0.8729   -1.8969    4.6326 H   0  0  0  0  0  0  0  0  0  0  0  0
   -0.5471   -2.2790    3.0083 H   0  0  0  0  0  0  0  0  0  0  0  0
   -2.6733   -1.2021    4.5982 H   0  0  0  0  0  0  0  0  0  0  0  0
   -1.2591   -0.8420    6.2322 H   0  0  0  0  0  0  0  0  0  0  0  0
    2.2757    0.9364   -1.0736 H   0  0  0  0  0  0  0  0  0  0  0  0
    2.5553    0.0460    0.6542 H   0  0  0  0  0  0  0  0  0  0  0  0
    1.1300   -2.2482   -0.0402 H   0  0  0  0  0  0  0  0  0  0  0  0
    1.9900   -1.2325   -1.4276 H   0  0  0  0  0  0  0  0  0  0  0  0
    1.4175    1.0086    2.6664 H   0  0  0  0  0  0  0  0  0  0  0  0
    0.2232    2.4634    2.4771 H   0  0  0  0  0  0  0  0  0  0  0  0
    0.1801   -2.3333   -2.8310 H   0  0  0  0  0  0  0  0  0  0  0  0
   -1.0585   -2.3721   -1.3811 H   0  0  0  0  0  0  0  0  0  0  0  0
   -1.2619    1.0392   -0.7510 H   0  0  0  0  0  0  0  0  0  0  0  0
    0.3641    1.3659   -1.8364 H   0  0  0  0  0  0  0  0  0  0  0  0
    0.1777    0.6363    4.5047 H   0  0  0  0  0  0  0  0  0  0  0  0
   -5.8942    0.4224   -4.8768 H   0  0  0  0  0  0  0  0  0  0  0  0
   -4.8527    1.6634   -5.8700 H   0  0  0  0  0  0  0  0  0  0  0  0
   -5.0685   -0.1248   -6.4926 H   0  0  0  0  0  0  0  0  0  0  0  0
   -4.9165    2.4223   -3.5495 H   0  0  0  0  0  0  0  0  0  0  0  0
   -3.2723    3.0077   -2.7100 H   0  0  0  0  0  0  0  0  0  0  0  0
   -3.4680    3.0759   -4.6195 H   0  0  0  0  0  0  0  0  0  0  0  0
   -1.7251    1.4682    2.9441 H   0  0  0  0  0  0  0  0  0  0  0  0
   -2.1231   -0.2588    2.4658 H   0  0  0  0  0  0  0  0  0  0  0  0
  1  3  1  0
  1 21  3  0
  2  3  2  0
  2  4  1  0
  2 26  1  0
  3  6  1  0
  4  5  2  0
  4 18  1  0
  5 19  1  0
  5 22  1  0
  6 22  2  0
  6 23  1  0
 17  7  1  1
  7 24  1  0
  7 25  2  0
  8 11  1  0
  8 13  1  0
  8 27  1  0
  8 28  1  0
  9 10  1  0
  9 16  1  0
  9 29  1  0
  9 30  1  0
 10 16  1  0
 10 31  1  0
 10 32  1  0
 11 17  1  0
 11 33  1  0
 11 34  1  0
 12 14  1  0
 12 17  1  0
 12 35  1  0
 12 36  1  0
 13 24  1  0
 13 37  1  0
 13 38  1  0
 14 23  1  0
 14 39  1  0
 14 40  1  0
 15 17  1  0
 15 23  1  0
 15 41  1  0
 15 42  1  0
 16 20  1  0
 16 43  1  0
 18 44  1  0
 18 45  1  0
 18 46  1  0
 19 47  1  0
 19 48  1  0
 19 49  1  0
 20 24  1  0
 20 50  1  0
 20 51  1  0
M  END
$$$$
