
     RDKit          3D

 39 40  0  0  0  0  0  0  0  0999 V2000
    2.8814   -1.6566    2.1075 C   0  0  0  0  0  0  0  0  0  0  0  0
    1.6435   -1.3513   -0.1338 C   0  0  0  0  0  0  0  0  0  0  0  0
    0.4271    3.8403    4.3022 C   0  0  0  0  0  0  0  0  0  0  0  0
   -0.7352    4.1918    2.0275 C   0  0  0  0  0  0  0  0  0  0  0  0
    2.0468   -0.8763    2.6370 C   0  0  0  0  0  0  0  0  0  0  0  0
    0.8482   -0.5716    0.4550 C   0  0  0  0  0  0  0  0  0  0  0  0
    0.4860    2.6097    4.0393 C   0  0  0  0  0  0  0  0  0  0  0  0
   -0.6532    2.9506    1.8310 C   0  0  0  0  0  0  0  0  0  0  0  0
    2.8720   -1.8224    0.6057 C   0  0  0  0  0  0  0  0  0  0  0  0
   -0.0211    4.7892    3.2175 C   0  0  0  0  0  0  0  0  0  0  0  0
    0.8815   -0.5397    1.8835 C   0  0  0  0  0  0  0  0  0  0  0  0
   -0.2847    2.1261    2.9371 C   0  0  0  0  0  0  0  0  0  0  0  0
    4.1399   -2.2905   -0.1495 C   0  0  0  0  0  0  0  0  0  0  0  0
    0.3859    6.2830    3.2316 C   0  0  0  0  0  0  0  0  0  0  0  0
    5.0224   -1.0880   -0.4809 C   0  0  0  0  0  0  0  0  0  0  0  0
    1.7513    6.4570    2.5684 C   0  0  0  0  0  0  0  0  0  0  0  0
   -2.2608    0.0038    1.5551 O   0  0  0  0  0  0  0  0  0  0  0  0
   -0.5347   -0.4946    4.7665 O   0  0  0  0  0  0  0  0  0  0  0  0
    4.3737   -0.1620   -1.6318 O   0  0  0  0  0  0  0  0  0  0  0  0
    2.9444    5.8645    3.4785 O   0  0  0  0  0  0  0  0  0  0  0  0
   -0.6769    0.1960    2.8418 S   0  0  0  0  0  0  0  0  0  0  0  0
    3.8715   -1.7329    2.5737 H   0  0  0  0  0  0  0  0  0  0  0  0
    1.7877   -1.2030   -1.2103 H   0  0  0  0  0  0  0  0  0  0  0  0
    1.1886    4.2467    4.9780 H   0  0  0  0  0  0  0  0  0  0  0  0
   -0.7868    4.8428    1.1460 H   0  0  0  0  0  0  0  0  0  0  0  0
    1.9407   -0.8486    3.8038 H   0  0  0  0  0  0  0  0  0  0  0  0
   -0.1734   -0.3002   -0.0504 H   0  0  0  0  0  0  0  0  0  0  0  0
    0.7032    1.8457    4.9007 H   0  0  0  0  0  0  0  0  0  0  0  0
   -1.3179    2.4509    1.0053 H   0  0  0  0  0  0  0  0  0  0  0  0
    4.7708   -3.0243    0.5590 H   0  0  0  0  0  0  0  0  0  0  0  0
    3.8574   -2.8547   -1.1688 H   0  0  0  0  0  0  0  0  0  0  0  0
   -0.4130    6.9138    2.5974 H   0  0  0  0  0  0  0  0  0  0  0  0
    0.4429    6.7092    4.3506 H   0  0  0  0  0  0  0  0  0  0  0  0
    5.1505   -0.4470    0.4746 H   0  0  0  0  0  0  0  0  0  0  0  0
    6.0656   -1.4598   -0.8168 H   0  0  0  0  0  0  0  0  0  0  0  0
    1.7479    5.8923    1.5578 H   0  0  0  0  0  0  0  0  0  0  0  0
    1.9357    7.5806    2.3611 H   0  0  0  0  0  0  0  0  0  0  0  0
    4.1419   -0.8474   -2.5971 H   0  0  0  0  0  0  0  0  0  0  0  0
    2.8904    6.3750    4.5702 H   0  0  0  0  0  0  0  0  0  0  0  0
  1  5  2  0
  1  9  1  0
  1 22  1  0
  2  6  1  0
  2  9  2  0
  2 23  1  0
  3  7  2  0
  3 10  1  0
  3 24  1  0
  4  8  1  0
  4 10  2  0
  4 25  1  0
  5 11  1  0
  5 26  1  0
  6 11  2  0
  6 27  1  0
  7 12  1  0
  7 28  1  0
  8 12  2  0
  8 29  1  0
  9 13  1  0
 10 14  1  0
 11 21  1  0
 12 21  1  0
 13 15  1  0
 13 30  1  0
 13 31  1  0
 14 16  1  0
 14 32  1  0
 14 33  1  0
 15 19  1  0
 15 34  1  0
 15 35  1  0
 16 20  1  0
 16 36  1  0
 16 37  1  0
 17 21  2  0
 18 21  2  0
 19 38  1  0
 20 39  1  0
M  END
$$$$
