
     RDKit          3D

 19 20  0  0  0  0  0  0  0  0999 V2000
    3.4287   -2.3675   -1.1666 C   0  0  0  0  0  0  0  0  0  0  0  0
    4.0744   -1.9582    0.3846 C   0  0  0  0  0  0  0  0  0  0  0  0
    1.6126   -1.2424   -0.3709 C   0  0  0  0  0  0  0  0  0  0  0  0
   -0.4689    0.8121    0.9682 C   0  0  0  0  0  0  0  0  0  0  0  0
    0.3250    0.9272   -0.3098 C   0  0  0  0  0  0  0  0  0  0  0  0
    0.1755   -0.6090   -0.4253 C   0  0  1  0  0  0  0  0  0  0  0  0
   -0.6329   -1.2384   -1.6276 C   0  0  0  0  0  0  0  0  0  0  0  0
    2.1479   -1.7983   -1.3760 N   0  0  0  0  0  0  0  0  0  0  0  0
   -0.4335   -0.5203    0.8879 N   0  0  0  0  0  0  0  0  0  0  0  0
   -0.9453    1.5950    1.7320 O   0  0  0  0  0  0  0  0  0  0  0  0
    2.6697   -0.9980    1.4138 S   0  0  0  0  0  0  0  0  0  0  0  0
    4.0379   -2.7158   -2.0818 H   0  0  0  0  0  0  0  0  0  0  0  0
    4.8977   -2.2813    0.7867 H   0  0  0  0  0  0  0  0  0  0  0  0
   -0.1887    1.5207   -1.1890 H   0  0  0  0  0  0  0  0  0  0  0  0
    1.4483    1.2517   -0.1501 H   0  0  0  0  0  0  0  0  0  0  0  0
   -1.7599   -0.7581   -1.6214 H   0  0  0  0  0  0  0  0  0  0  0  0
   -0.6879   -2.4528   -1.4714 H   0  0  0  0  0  0  0  0  0  0  0  0
   -0.0641   -0.9555   -2.6762 H   0  0  0  0  0  0  0  0  0  0  0  0
   -1.2610   -1.0734    1.1328 H   0  0  0  0  0  0  0  0  0  0  0  0
  1  2  2  0
  1  8  1  0
  1 12  1  0
  2 11  1  0
  2 13  1  0
  3  6  1  0
  3  8  2  0
  3 11  1  0
  4  5  1  0
  4  9  1  0
  4 10  2  0
  5  6  1  0
  5 14  1  0
  5 15  1  0
  6  7  1  6
  6  9  1  0
  7 16  1  0
  7 17  1  0
  7 18  1  0
  9 19  1  0
M  END
$$$$
