
     RDKit          3D

 39 40  0  0  0  0  0  0  0  0999 V2000
    3.9403   -5.1642    0.0080 C   0  0  0  0  0  0  0  0  0  0  0  0
    5.5185   -4.1220    1.6685 C   0  0  0  0  0  0  0  0  0  0  0  0
    1.5212   -1.8487    0.2365 C   0  0  0  0  0  0  0  0  0  0  0  0
    3.1083   -0.7893    1.8776 C   0  0  0  0  0  0  0  0  0  0  0  0
    4.4181   -6.4601    0.3121 C   0  0  0  0  0  0  0  0  0  0  0  0
    6.0371   -5.3862    2.0233 C   0  0  0  0  0  0  0  0  0  0  0  0
    0.4594   -1.0314    0.6806 C   0  0  0  0  0  0  0  0  0  0  0  0
    2.0915    0.0646    2.3651 C   0  0  0  0  0  0  0  0  0  0  0  0
    5.2669   -6.6094    1.5640 C   0  0  0  0  0  0  0  0  0  0  0  0
    0.6606   -0.2701    1.9768 C   0  0  0  0  0  0  0  0  0  0  0  0
    4.6801   -4.0640    0.5209 C   0  0  0  0  0  0  0  0  0  0  0  0
    2.8283   -1.5160    0.6883 C   0  0  0  0  0  0  0  0  0  0  0  0
    3.7827   -7.7252   -0.1963 C   0  0  0  0  0  0  0  0  0  0  0  0
    6.9609   -5.6204    3.1885 C   0  0  0  0  0  0  0  0  0  0  0  0
   -0.9777   -1.2252    0.2767 C   0  0  0  0  0  0  0  0  0  0  0  0
    2.2469    0.9420    3.5770 C   0  0  0  0  0  0  0  0  0  0  0  0
    3.6698   -2.6873   -2.1781 O   0  0  0  0  0  0  0  0  0  0  0  0
    5.9684   -1.1378    0.2348 O   0  0  0  0  0  0  0  0  0  0  0  0
    5.7709   -7.9101    1.9097 O   0  0  0  0  0  0  0  0  0  0  0  0
   -0.4028    0.5713    2.4529 O   0  0  0  0  0  0  0  0  0  0  0  0
    4.3673   -2.2850   -0.3020 S   0  0  0  0  0  0  0  0  0  0  0  0
    3.3441   -5.0513   -1.0170 H   0  0  0  0  0  0  0  0  0  0  0  0
    6.1814   -3.1795    1.9693 H   0  0  0  0  0  0  0  0  0  0  0  0
    1.3730   -2.3720   -0.8229 H   0  0  0  0  0  0  0  0  0  0  0  0
    4.2280   -0.4675    2.1257 H   0  0  0  0  0  0  0  0  0  0  0  0
    4.5999   -8.5384   -0.3170 H   0  0  0  0  0  0  0  0  0  0  0  0
    2.9883   -8.0630    0.5781 H   0  0  0  0  0  0  0  0  0  0  0  0
    3.2750   -7.4999   -1.2144 H   0  0  0  0  0  0  0  0  0  0  0  0
    6.3093   -5.8406    4.1218 H   0  0  0  0  0  0  0  0  0  0  0  0
    7.6443   -6.5275    2.9547 H   0  0  0  0  0  0  0  0  0  0  0  0
    7.5925   -4.6634    3.3593 H   0  0  0  0  0  0  0  0  0  0  0  0
   -1.4692   -1.9448    1.0414 H   0  0  0  0  0  0  0  0  0  0  0  0
   -1.5172   -0.1989    0.2895 H   0  0  0  0  0  0  0  0  0  0  0  0
   -1.0052   -1.6908   -0.7845 H   0  0  0  0  0  0  0  0  0  0  0  0
    1.5970    1.8925    3.4432 H   0  0  0  0  0  0  0  0  0  0  0  0
    1.8946    0.3392    4.5030 H   0  0  0  0  0  0  0  0  0  0  0  0
    3.3666    1.2231    3.6880 H   0  0  0  0  0  0  0  0  0  0  0  0
    4.9585   -8.8599    1.5151 H   0  0  0  0  0  0  0  0  0  0  0  0
   -0.1141    1.0962    3.6186 H   0  0  0  0  0  0  0  0  0  0  0  0
  1  5  2  0
  1 11  1  0
  1 22  1  0
  2  6  1  0
  2 11  2  0
  2 23  1  0
  3  7  2  0
  3 12  1  0
  3 24  1  0
  4  8  1  0
  4 12  2  0
  4 25  1  0
  5  9  1  0
  5 13  1  0
  6  9  2  0
  6 14  1  0
  7 10  1  0
  7 15  1  0
  8 10  2  0
  8 16  1  0
  9 19  1  0
 10 20  1  0
 11 21  1  0
 12 21  1  0
 13 26  1  0
 13 27  1  0
 13 28  1  0
 14 29  1  0
 14 30  1  0
 14 31  1  0
 15 32  1  0
 15 33  1  0
 15 34  1  0
 16 35  1  0
 16 36  1  0
 16 37  1  0
 17 21  2  0
 18 21  2  0
 19 38  1  0
 20 39  1  0
M  END
$$$$
