
     RDKit          3D

 45 49  0  0  0  0  0  0  0  0999 V2000
   -1.7979    5.7870    0.4961 C   0  0  0  0  0  0  0  0  0  0  0  0
    0.5396    4.8994    0.3224 C   0  0  0  0  0  0  0  0  0  0  0  0
   -2.1047    4.7838   -0.3895 C   0  0  0  0  0  0  0  0  0  0  0  0
   -0.4697    5.9634    0.7017 C   0  0  0  0  0  0  0  0  0  0  0  0
   -3.3572    4.1135   -0.9476 C   0  0  0  0  0  0  0  0  0  0  0  0
   -7.6160    5.5425   -0.9258 C   0  0  0  0  0  0  0  0  0  0  0  0
   -1.1176    3.7190   -0.7758 C   0  0  0  0  0  0  0  0  0  0  0  0
   -6.3855    6.4575   -0.4090 C   0  0  0  0  0  0  0  0  0  0  0  0
   -4.9156    4.8408   -0.9519 C   0  0  0  0  0  0  0  0  0  0  0  0
   -8.3679    7.6031   -0.3785 C   0  0  0  0  0  0  0  0  0  0  0  0
   -2.3439   -0.1235   -0.3273 C   0  0  0  0  0  0  0  0  0  0  0  0
   -0.3798   -0.7597   -0.9007 C   0  0  0  0  0  0  0  0  0  0  0  0
   -1.0499    0.5853   -0.6948 C   0  0  0  0  0  0  0  0  0  0  0  0
   -8.8202    6.2555   -0.9251 C   0  0  0  0  0  0  0  0  0  0  0  0
   -1.5142   -1.3077   -0.1683 C   0  0  0  0  0  0  0  0  0  0  0  0
   -9.2823    6.4254   -2.3818 C   0  0  0  0  0  0  0  0  0  0  0  0
   -9.7233    5.5303    0.0913 C   0  0  0  0  0  0  0  0  0  0  0  0
   -1.1030    1.5709   -1.9533 C   0  0  0  0  0  0  0  0  0  0  0  0
    0.2005    3.8570   -0.5388 N   0  0  0  0  0  0  0  0  0  0  0  0
   -3.0090    2.8827   -1.6614 N   0  0  0  0  0  0  0  0  0  0  0  0
   -7.2681    4.4849   -1.6852 N   0  0  0  0  0  0  0  0  0  0  0  0
   -5.1421    5.9859   -0.2145 N   0  0  0  0  0  0  0  0  0  0  0  0
   -6.0595    4.0337   -1.5049 N   0  0  0  0  0  0  0  0  0  0  0  0
   -1.7252    2.7831   -1.6510 N   0  0  0  0  0  0  0  0  0  0  0  0
   -7.1257    7.3881    0.3631 N   0  0  0  0  0  0  0  0  0  0  0  0
   -9.2420    8.2989    0.3529 O   0  0  0  0  0  0  0  0  0  0  0  0
    0.0176    7.1793    1.8277 F   0  0  0  0  0  0  0  0  0  0  0  0
   -2.0407   -2.6474   -0.4927 F   0  0  0  0  0  0  0  0  0  0  0  0
   -1.1410   -1.4597    1.2708 F   0  0  0  0  0  0  0  0  0  0  0  0
   -2.5388    6.6253    0.6274 H   0  0  0  0  0  0  0  0  0  0  0  0
    1.6849    5.1171    0.4878 H   0  0  0  0  0  0  0  0  0  0  0  0
   -2.8661    0.2528    0.5812 H   0  0  0  0  0  0  0  0  0  0  0  0
   -3.0333   -0.2610   -1.1916 H   0  0  0  0  0  0  0  0  0  0  0  0
   -0.4135   -1.1142   -1.9562 H   0  0  0  0  0  0  0  0  0  0  0  0
    0.6248   -0.8828   -0.4364 H   0  0  0  0  0  0  0  0  0  0  0  0
   -0.6338    1.1020    0.2066 H   0  0  0  0  0  0  0  0  0  0  0  0
  -10.2541    7.1514   -2.3760 H   0  0  0  0  0  0  0  0  0  0  0  0
   -9.5734    5.3287   -2.8121 H   0  0  0  0  0  0  0  0  0  0  0  0
   -8.3728    6.9143   -3.0197 H   0  0  0  0  0  0  0  0  0  0  0  0
  -10.7605    6.1533    0.1782 H   0  0  0  0  0  0  0  0  0  0  0  0
   -9.1466    5.4891    1.1588 H   0  0  0  0  0  0  0  0  0  0  0  0
   -9.9316    4.4120   -0.3307 H   0  0  0  0  0  0  0  0  0  0  0  0
   -1.6953    1.0966   -2.8572 H   0  0  0  0  0  0  0  0  0  0  0  0
   -0.0045    1.8584   -2.2751 H   0  0  0  0  0  0  0  0  0  0  0  0
   -6.6347    8.2208    0.7601 H   0  0  0  0  0  0  0  0  0  0  0  0
  1  3  2  0
  1  4  1  0
  1 30  1  0
  2  4  2  0
  2 19  1  0
  2 31  1  0
  3  5  1  0
  3  7  1  0
  4 27  1  0
  5  9  1  0
  5 20  2  0
  6  8  2  0
  6 14  1  0
  6 21  1  0
  7 19  2  0
  7 24  1  0
  8 22  1  0
  8 25  1  0
  9 22  2  0
  9 23  1  0
 10 14  1  0
 10 25  1  0
 10 26  2  0
 11 13  1  0
 11 15  1  0
 11 32  1  0
 11 33  1  0
 12 13  1  0
 12 15  1  0
 12 34  1  0
 12 35  1  0
 13 18  1  0
 13 36  1  0
 14 16  1  0
 14 17  1  0
 15 28  1  0
 15 29  1  0
 16 37  1  0
 16 38  1  0
 16 39  1  0
 17 40  1  0
 17 41  1  0
 17 42  1  0
 18 24  1  0
 18 43  1  0
 18 44  1  0
 20 24  1  0
 21 23  2  0
 25 45  1  0
M  END
$$$$
