
     RDKit          3D

 29 30  0  0  0  0  0  0  0  0999 V2000
    0.3630    2.8015   -0.2625 C   0  0  0  0  0  0  0  0  0  0  0  0
    1.0348    2.5326    0.9314 C   0  0  0  0  0  0  0  0  0  0  0  0
   -0.0256    1.7912   -1.0716 C   0  0  0  0  0  0  0  0  0  0  0  0
    0.8270    1.3679    1.5951 C   0  0  0  0  0  0  0  0  0  0  0  0
   -0.2868    0.5677   -0.4539 C   0  0  0  0  0  0  0  0  0  0  0  0
    0.4951    0.3047    0.8959 C   0  0  0  0  0  0  0  0  0  0  0  0
   -1.0483   -1.4829   -0.4239 C   0  0  0  0  0  0  0  0  0  0  0  0
    0.2179   -1.8060    0.6068 C   0  0  1  0  0  0  0  0  0  0  0  0
    1.3502   -5.8103   -0.8415 C   0  0  0  0  0  0  0  0  0  0  0  0
    1.4634   -2.0847   -0.1625 C   0  0  0  0  0  0  0  0  0  0  0  0
    2.3351   -3.0400    0.8052 C   0  0  0  0  0  0  0  0  0  0  0  0
   -1.0277   -0.3476   -1.0036 N   0  0  0  0  0  0  0  0  0  0  0  0
   -1.5107   -2.7541   -1.3079 N   0  0  0  0  0  0  0  0  0  0  0  0
    0.3052   -0.8074    1.4758 O   0  0  0  0  0  0  0  0  0  0  0  0
    1.2918   -4.9596    1.2194 S   0  0  0  0  0  0  0  0  0  0  0  0
    0.8642    3.6156   -0.8428 H   0  0  0  0  0  0  0  0  0  0  0  0
    1.0191    3.4130    1.6287 H   0  0  0  0  0  0  0  0  0  0  0  0
   -0.7772    2.0074   -1.8844 H   0  0  0  0  0  0  0  0  0  0  0  0
    1.4768    1.1220    2.4978 H   0  0  0  0  0  0  0  0  0  0  0  0
   -0.0786   -2.6585    1.1698 H   0  0  0  0  0  0  0  0  0  0  0  0
    0.8121   -6.8979   -0.8260 H   0  0  0  0  0  0  0  0  0  0  0  0
    2.4966   -5.9677   -1.2070 H   0  0  0  0  0  0  0  0  0  0  0  0
    0.7379   -5.1026   -1.6149 H   0  0  0  0  0  0  0  0  0  0  0  0
    1.9925   -1.1191   -0.4070 H   0  0  0  0  0  0  0  0  0  0  0  0
    1.1515   -2.6295   -1.0999 H   0  0  0  0  0  0  0  0  0  0  0  0
    3.4845   -3.2274    0.2841 H   0  0  0  0  0  0  0  0  0  0  0  0
    2.5496   -2.3898    1.8830 H   0  0  0  0  0  0  0  0  0  0  0  0
   -2.4948   -2.4588   -2.0278 H   0  0  0  0  0  0  0  0  0  0  0  0
   -1.7317   -3.7697   -0.6025 H   0  0  0  0  0  0  0  0  0  0  0  0
  1  2  2  0
  1  3  1  0
  1 16  1  0
  2  4  1  0
  2 17  1  0
  3  5  2  0
  3 18  1  0
  4  6  2  0
  4 19  1  0
  5  6  1  0
  5 12  1  0
  6 14  1  0
  7  8  1  0
  7 12  2  0
  7 13  1  0
  8 10  1  0
  8 14  1  0
  8 20  1  1
  9 15  1  0
  9 21  1  0
  9 22  1  0
  9 23  1  0
 10 11  1  0
 10 24  1  0
 10 25  1  0
 11 15  1  0
 11 26  1  0
 11 27  1  0
 13 28  1  0
 13 29  1  0
M  END
$$$$
