
     RDKit          3D

 13 12  0  0  0  0  0  0  0  0999 V2000
   -1.5499    2.6114   -1.8027 C   0  0  0  0  0  0  0  0  0  0  0  0
   -0.2816    0.0515   -0.1603 C   0  0  0  0  0  0  0  0  0  0  0  0
    0.3432   -1.1238    1.8536 C   0  0  0  0  0  0  0  0  0  0  0  0
    0.1997    0.3433   -1.6235 C   0  0  0  0  0  0  0  0  0  0  0  0
   -0.3722    1.7122   -2.1050 N   0  0  0  0  0  0  0  0  0  0  0  0
   -0.9520    0.8200    0.5246 O   0  0  0  0  0  0  0  0  0  0  0  0
    0.6388   -0.6832    0.4112 O   0  0  0  0  0  0  0  0  0  0  0  0
   -1.9496    3.6758   -1.9198 H   0  0  0  0  0  0  0  0  0  0  0  0
    0.8585   -2.0516    1.9481 H   0  0  0  0  0  0  0  0  0  0  0  0
   -0.7182   -1.2110    1.9117 H   0  0  0  0  0  0  0  0  0  0  0  0
    0.7528   -0.3434    2.4532 H   0  0  0  0  0  0  0  0  0  0  0  0
   -0.2156   -0.5304   -2.3385 H   0  0  0  0  0  0  0  0  0  0  0  0
    1.4036    0.3465   -1.6364 H   0  0  0  0  0  0  0  0  0  0  0  0
  1  5  3  0
  1  8  1  0
  2  4  1  0
  2  6  2  0
  2  7  1  0
  3  7  1  0
  3  9  1  0
  3 10  1  0
  3 11  1  0
  4  5  1  0
  4 12  1  0
  4 13  1  0
M  CHG  1   5   1
M  END
$$$$
