
     RDKit          3D

 26 27  0  0  0  0  0  0  0  0999 V2000
    1.1360    1.6387    1.9329 C   0  0  0  0  0  0  0  0  0  0  0  0
    0.1190    0.8936    1.5894 C   0  0  0  0  0  0  0  0  0  0  0  0
    0.9862    2.3960    3.0400 C   0  0  0  0  0  0  0  0  0  0  0  0
   -0.2981    2.8905    3.3019 C   0  0  0  0  0  0  0  0  0  0  0  0
   -1.0964    1.3674    1.8070 C   0  0  0  0  0  0  0  0  0  0  0  0
   -1.2939    2.1720    2.8578 C   0  0  0  0  0  0  0  0  0  0  0  0
    1.4631   -0.8513    0.3441 C   0  0  0  0  0  0  0  0  0  0  0  0
    1.6744    0.1414   -0.7897 C   0  0  0  0  0  0  0  0  0  0  0  0
    0.1479   -0.0881    0.5874 C   0  0  2  0  0  0  0  0  0  0  0  0
    3.3013    2.7269    3.4155 C   0  0  0  0  0  0  0  0  0  0  0  0
    0.2356    0.5842   -0.7511 N   0  0  0  0  0  0  0  0  0  0  0  0
   -0.5871    3.7488    4.4551 O   0  0  0  0  0  0  0  0  0  0  0  0
    1.8533    3.1554    3.6129 O   0  0  0  0  0  0  0  0  0  0  0  0
   -3.1173    0.2372    1.2854 Br  0  0  0  0  0  0  0  0  0  0  0  0
   -3.3423    3.0589    3.3136 Br  0  0  0  0  0  0  0  0  0  0  0  0
    2.1602    1.1339    1.8188 H   0  0  0  0  0  0  0  0  0  0  0  0
    1.2100   -1.8909   -0.0673 H   0  0  0  0  0  0  0  0  0  0  0  0
    2.2481   -0.8680    1.1763 H   0  0  0  0  0  0  0  0  0  0  0  0
    2.2910    0.9997   -0.4643 H   0  0  0  0  0  0  0  0  0  0  0  0
    1.9846   -0.2848   -1.7618 H   0  0  0  0  0  0  0  0  0  0  0  0
   -0.7253   -0.6858    0.6940 H   0  0  0  0  0  0  0  0  0  0  0  0
    3.8559    3.3413    4.0880 H   0  0  0  0  0  0  0  0  0  0  0  0
    3.5173    2.9310    2.3906 H   0  0  0  0  0  0  0  0  0  0  0  0
    3.3320    1.6900    3.6668 H   0  0  0  0  0  0  0  0  0  0  0  0
    0.1010    1.6349   -0.7286 H   0  0  0  0  0  0  0  0  0  0  0  0
   -1.8515    4.0798    4.4239 H   0  0  0  0  0  0  0  0  0  0  0  0
  1  2  2  0
  1  3  1  0
  1 16  1  0
  2  5  1  0
  2  9  1  0
  3  4  2  0
  3 13  1  0
  4  6  1  0
  4 12  1  0
  5  6  2  0
  5 14  1  0
  6 15  1  0
  7  8  1  0
  7  9  1  0
  7 17  1  0
  7 18  1  0
  8 11  1  0
  8 19  1  0
  8 20  1  0
  9 11  1  0
  9 21  1  6
 10 13  1  0
 10 22  1  0
 10 23  1  0
 10 24  1  0
 11 25  1  0
 12 26  1  0
M  END
$$$$
