
     RDKit          3D

 23 23  0  0  0  0  0  0  0  0999 V2000
    2.5967   -3.7229    4.1180 C   0  0  0  0  0  0  0  0  0  0  0  0
    1.5292   -1.6425    0.3178 C   0  0  0  0  0  0  0  0  0  0  0  0
    0.9116   -0.5528    0.6992 C   0  0  0  0  0  0  0  0  0  0  0  0
    2.2426   -0.4131    2.6329 C   0  0  0  0  0  0  0  0  0  0  0  0
    2.9428   -1.5054    2.2462 C   0  0  0  0  0  0  0  0  0  0  0  0
    2.7316   -1.8542    0.8911 C   0  0  0  0  0  0  0  0  0  0  0  0
    1.0799   -0.1327    1.9724 C   0  0  0  0  0  0  0  0  0  0  0  0
    3.8094   -3.5008    3.2112 C   0  0  0  0  0  0  0  0  0  0  0  0
    4.0129   -1.9959    2.9907 C   0  0  2  0  0  0  0  0  0  0  0  0
    1.2116   -3.5726    4.4312 N   0  0  0  0  0  0  0  0  0  0  0  0
    4.2524   -1.2315    4.3753 N   0  0  0  0  0  0  0  0  0  0  0  0
    3.8078   -2.6162    0.0137 N   0  0  0  0  0  0  0  0  0  0  0  0
    3.5434   -2.8895   -0.8562 O   0  0  0  0  0  0  0  0  0  0  0  0
    4.7353   -2.7143    0.3618 O   0  0  0  0  0  0  0  0  0  0  0  0
    0.1704    1.2516    2.4738 F   0  0  0  0  0  0  0  0  0  0  0  0
    1.5254   -1.8503   -0.7993 H   0  0  0  0  0  0  0  0  0  0  0  0
   -0.0985   -0.2924    0.2312 H   0  0  0  0  0  0  0  0  0  0  0  0
    2.2926   -0.1421    3.7449 H   0  0  0  0  0  0  0  0  0  0  0  0
    4.8018   -3.9213    3.6911 H   0  0  0  0  0  0  0  0  0  0  0  0
    3.6252   -4.0540    2.1877 H   0  0  0  0  0  0  0  0  0  0  0  0
    4.9465   -1.8696    2.3495 H   0  0  0  0  0  0  0  0  0  0  0  0
    4.5831   -0.3327    4.1021 H   0  0  0  0  0  0  0  0  0  0  0  0
    5.0083   -1.7113    4.8065 H   0  0  0  0  0  0  0  0  0  0  0  0
  1  8  1  0
  1 10  3  0
  2  3  2  0
  2  6  1  0
  2 16  1  0
  3  7  1  0
  3 17  1  0
  4  5  1  0
  4  7  2  0
  4 18  1  0
  5  6  2  0
  5  9  1  0
  6 12  1  0
  7 15  1  0
  8  9  1  0
  8 19  1  0
  8 20  1  0
  9 11  1  0
  9 21  1  6
 11 22  1  0
 11 23  1  0
 12 13  1  0
 12 14  2  0
M  CHG  2  12   1  13  -1
M  END
$$$$
