
     RDKit          3D

 41 42  0  0  0  0  0  0  0  0999 V2000
    4.1828   -2.8565   -5.6924 C   0  0  0  0  0  0  0  0  0  0  0  0
    5.1223   -2.1993   -8.1194 C   0  0  0  0  0  0  0  0  0  0  0  0
    3.5632   -3.4973   -4.3089 C   0  0  0  0  0  0  0  0  0  0  0  0
    6.3454   -5.2883    0.4562 C   0  0  0  0  0  0  0  0  0  0  0  0
    5.0279   -5.9771    0.0447 C   0  0  0  0  0  0  0  0  0  0  0  0
    6.8325   -4.3976   -0.7050 C   0  0  0  0  0  0  0  0  0  0  0  0
    3.9889   -4.9130   -0.3759 C   0  0  0  0  0  0  0  0  0  0  0  0
    5.7252   -3.3929   -1.0899 C   0  0  0  0  0  0  0  0  0  0  0  0
    4.5187   -4.1199   -1.4726 C   0  0  0  0  0  0  0  0  0  0  0  0
    4.1566   -1.2374  -12.7386 C   0  0  0  0  0  0  0  0  0  0  0  0
    2.6340   -0.8608  -10.4177 C   0  0  0  0  0  0  0  0  0  0  0  0
    3.4916   -3.1995   -1.9281 C   0  0  0  0  0  0  0  0  0  0  0  0
    3.7410   -1.6694  -11.2517 C   0  0  0  0  0  0  0  0  0  0  0  0
    4.9764   -1.6301   -5.6934 N   0  0  0  0  0  0  0  0  0  0  0  0
    5.2860   -1.2625   -6.9877 N   0  0  0  0  0  0  0  0  0  0  0  0
    3.7954   -2.6672   -3.2762 N   0  0  0  0  0  0  0  0  0  0  0  0
    2.7791   -4.4644   -4.3326 O   0  0  0  0  0  0  0  0  0  0  0  0
    6.7644    0.1530  -10.7121 O   0  0  0  0  0  0  0  0  0  0  0  0
    4.1108   -3.8975   -7.4929 S   0  0  0  0  0  0  0  0  0  0  0  0
    5.5322   -1.5672  -10.0758 S   0  0  0  0  0  0  0  0  0  0  0  0
    7.1504   -6.1080    0.6670 H   0  0  0  0  0  0  0  0  0  0  0  0
    6.1626   -4.6295    1.4041 H   0  0  0  0  0  0  0  0  0  0  0  0
    5.2367   -6.6999   -0.8506 H   0  0  0  0  0  0  0  0  0  0  0  0
    4.6137   -6.5703    0.9623 H   0  0  0  0  0  0  0  0  0  0  0  0
    7.7766   -3.8062   -0.3522 H   0  0  0  0  0  0  0  0  0  0  0  0
    7.0906   -5.0728   -1.6243 H   0  0  0  0  0  0  0  0  0  0  0  0
    3.0136   -5.4566   -0.7498 H   0  0  0  0  0  0  0  0  0  0  0  0
    3.7458   -4.1985    0.5283 H   0  0  0  0  0  0  0  0  0  0  0  0
    5.4753   -2.6928   -0.1763 H   0  0  0  0  0  0  0  0  0  0  0  0
    6.0877   -2.7577   -2.0112 H   0  0  0  0  0  0  0  0  0  0  0  0
    4.7536   -4.7905   -2.2786 H   0  0  0  0  0  0  0  0  0  0  0  0
    4.4904   -0.0984  -12.7277 H   0  0  0  0  0  0  0  0  0  0  0  0
    5.0503   -1.9214  -13.1147 H   0  0  0  0  0  0  0  0  0  0  0  0
    3.2174   -1.3642  -13.4522 H   0  0  0  0  0  0  0  0  0  0  0  0
    2.9762    0.2722  -10.3277 H   0  0  0  0  0  0  0  0  0  0  0  0
    2.5165   -1.3397   -9.3388 H   0  0  0  0  0  0  0  0  0  0  0  0
    1.6026   -0.9114  -11.0019 H   0  0  0  0  0  0  0  0  0  0  0  0
    3.4327   -2.3154   -1.1952 H   0  0  0  0  0  0  0  0  0  0  0  0
    2.4790   -3.7449   -1.9653 H   0  0  0  0  0  0  0  0  0  0  0  0
    3.4715   -2.8983  -11.1586 H   0  0  0  0  0  0  0  0  0  0  0  0
    4.5376   -2.0208   -3.3848 H   0  0  0  0  0  0  0  0  0  0  0  0
  1  3  1  0
  1 14  2  0
  1 19  1  0
  2 15  2  0
  2 19  1  0
  2 20  1  0
  3 16  1  0
  3 17  2  0
  4  5  1  0
  4  6  1  0
  4 21  1  0
  4 22  1  0
  5  7  1  0
  5 23  1  0
  5 24  1  0
  6  8  1  0
  6 25  1  0
  6 26  1  0
  7  9  1  0
  7 27  1  0
  7 28  1  0
  8  9  1  0
  8 29  1  0
  8 30  1  0
  9 12  1  0
  9 31  1  0
 10 13  1  0
 10 32  1  0
 10 33  1  0
 10 34  1  0
 11 13  1  0
 11 35  1  0
 11 36  1  0
 11 37  1  0
 12 16  1  0
 12 38  1  0
 12 39  1  0
 20 13  1  1
 13 40  1  0
 14 15  1  0
 16 41  1  0
 18 20  2  0
M  END
$$$$
