
     RDKit          3D

 19 20  0  0  0  0  0  0  0  0999 V2000
    0.7366    1.4417   -1.4789 C   0  0  0  0  0  0  0  0  0  0  0  0
    0.3267    1.9210   -2.9907 C   0  0  0  0  0  0  0  0  0  0  0  0
   -0.2551    0.3299   -0.8721 C   0  0  0  0  0  0  0  0  0  0  0  0
   -1.1967    1.5719   -3.4765 C   0  0  0  0  0  0  0  0  0  0  0  0
   -1.6615   -0.0171   -1.5895 C   0  0  0  0  0  0  0  0  0  0  0  0
   -4.1085    1.1547   -4.1045 C   0  0  0  0  0  0  0  0  0  0  0  0
   -4.5299    0.1909   -2.7306 C   0  0  0  0  0  0  0  0  0  0  0  0
   -3.0568    0.0866   -3.4417 C   0  0  0  0  0  0  0  0  0  0  0  0
   -1.9982    0.6156   -2.7793 N   0  0  0  0  0  0  0  0  0  0  0  0
   -2.4094   -0.9510   -1.1158 O   0  0  0  0  0  0  0  0  0  0  0  0
    1.8811    1.3841   -1.2000 H   0  0  0  0  0  0  0  0  0  0  0  0
    0.9251    2.8038   -3.5235 H   0  0  0  0  0  0  0  0  0  0  0  0
   -0.0929   -0.2049    0.1911 H   0  0  0  0  0  0  0  0  0  0  0  0
   -1.4514    1.6046   -4.5062 H   0  0  0  0  0  0  0  0  0  0  0  0
   -4.5901    0.8037   -5.2152 H   0  0  0  0  0  0  0  0  0  0  0  0
   -3.8276    2.3694   -3.9160 H   0  0  0  0  0  0  0  0  0  0  0  0
   -4.5185    0.7298   -1.5905 H   0  0  0  0  0  0  0  0  0  0  0  0
   -5.2654   -0.8145   -2.9206 H   0  0  0  0  0  0  0  0  0  0  0  0
   -2.8097   -0.8995   -4.0750 H   0  0  0  0  0  0  0  0  0  0  0  0
  1  2  1  0
  1  3  2  0
  1 11  1  0
  2  4  2  0
  2 12  1  0
  3  5  1  0
  3 13  1  0
  4  9  1  0
  4 14  1  0
  5  9  1  0
  5 10  2  0
  6  7  1  0
  6  8  1  0
  6 15  1  0
  6 16  1  0
  7  8  1  0
  7 17  1  0
  7 18  1  0
  8  9  1  0
  8 19  1  0
M  END
$$$$
