
     RDKit          3D

 21 22  0  0  0  0  0  0  0  0999 V2000
    1.5890   -1.1475    0.0349 C   0  0  0  0  0  0  0  0  0  0  0  0
    1.0207   -0.1420    0.7000 C   0  0  0  0  0  0  0  0  0  0  0  0
    2.5250   -1.9040    0.5756 C   0  0  0  0  0  0  0  0  0  0  0  0
    0.9333   -0.3380    2.0302 C   0  0  0  0  0  0  0  0  0  0  0  0
    1.9225   -1.1197    2.6374 C   0  0  0  0  0  0  0  0  0  0  0  0
    2.8362   -1.6950    1.8188 C   0  0  0  0  0  0  0  0  0  0  0  0
   -0.1683    0.2955    2.8629 C   0  0  0  0  0  0  0  0  0  0  0  0
   -2.1066   -0.1881    4.4503 C   0  0  0  0  0  0  0  0  0  0  0  0
   -0.9035    0.6060    5.2683 C   0  0  0  0  0  0  0  0  0  0  0  0
   -0.5493   -0.3566    4.0157 C   0  0  0  0  0  0  0  0  0  0  0  0
   -0.7624    1.2742    2.4164 O   0  0  0  0  0  0  0  0  0  0  0  0
    2.1989   -1.0083    3.9390 F   0  0  0  0  0  0  0  0  0  0  0  0
    4.3629   -2.9778    2.8108 Br  0  0  0  0  0  0  0  0  0  0  0  0
    1.6973   -1.0092   -1.0740 H   0  0  0  0  0  0  0  0  0  0  0  0
    0.0254    0.1597    0.3193 H   0  0  0  0  0  0  0  0  0  0  0  0
    3.3033   -2.3717   -0.0784 H   0  0  0  0  0  0  0  0  0  0  0  0
   -2.5995   -1.2117    4.9760 H   0  0  0  0  0  0  0  0  0  0  0  0
   -2.8141    0.4783    3.6593 H   0  0  0  0  0  0  0  0  0  0  0  0
   -0.7449    1.8295    5.0474 H   0  0  0  0  0  0  0  0  0  0  0  0
   -0.5458    0.1453    6.3760 H   0  0  0  0  0  0  0  0  0  0  0  0
   -0.0976   -1.3708    4.2612 H   0  0  0  0  0  0  0  0  0  0  0  0
  1  2  2  0
  1  3  1  0
  1 14  1  0
  2  4  1  0
  2 15  1  0
  3  6  2  0
  3 16  1  0
  4  5  2  0
  4  7  1  0
  5  6  1  0
  5 12  1  0
  6 13  1  0
  7 10  1  0
  7 11  2  0
  8  9  1  0
  8 10  1  0
  8 17  1  0
  8 18  1  0
  9 10  1  0
  9 19  1  0
  9 20  1  0
 10 21  1  0
M  END
$$$$
