
     RDKit          3D

 15 15  0  0  0  0  0  0  0  0999 V2000
    0.7940   -0.1889    0.6395 C   0  0  0  0  0  0  0  0  0  0  0  0
    2.4800   -2.0034    0.5123 C   0  0  0  0  0  0  0  0  0  0  0  0
    0.8446   -0.0811    1.9647 C   0  0  0  0  0  0  0  0  0  0  0  0
    1.7341   -0.9603   -0.0613 C   0  0  0  0  0  0  0  0  0  0  0  0
    2.3630   -2.2021    1.8780 C   0  0  0  0  0  0  0  0  0  0  0  0
    1.3986   -1.3151    2.6594 N   0  0  0  0  0  0  0  0  0  0  0  0
    4.4784   -1.0112    3.9041 O   0  0  0  0  0  0  0  0  0  0  0  0
    5.0891   -3.9305    1.2709 O   0  0  0  0  0  0  0  0  0  0  0  0
    3.9124   -3.0031    3.0602 S   0  0  0  0  0  0  0  0  0  0  0  0
    1.6683   -0.9731   -2.2833 Cl  0  0  0  0  0  0  0  0  0  0  0  0
    0.3086    0.6743    0.0646 H   0  0  0  0  0  0  0  0  0  0  0  0
    3.2821   -2.6384   -0.1517 H   0  0  0  0  0  0  0  0  0  0  0  0
   -0.1575    0.1621    2.4159 H   0  0  0  0  0  0  0  0  0  0  0  0
    1.2580   -1.4729    3.8264 H   0  0  0  0  0  0  0  0  0  0  0  0
    6.0702   -4.8900    1.3624 H   0  0  0  0  0  0  0  0  0  0  0  0
  1  3  2  0
  1  4  1  0
  1 11  1  0
  2  4  2  0
  2  5  1  0
  2 12  1  0
  3  6  1  0
  3 13  1  0
  4 10  1  0
  5  6  2  0
  5  9  1  0
  6 14  1  0
  7  9  2  0
  9  8  1  6
  8 15  1  0
M  CHG  1   6   1
M  END
$$$$
