
     RDKit          3D

 51 54  0  0  0  0  0  0  0  0999 V2000
   -6.1084   -7.2941  -12.4103 C   0  0  0  0  0  0  0  0  0  0  0  0
   -6.6591   -6.0422  -12.6445 C   0  0  0  0  0  0  0  0  0  0  0  0
   -5.5549   -7.5986  -11.2484 C   0  0  0  0  0  0  0  0  0  0  0  0
   -5.1295   -6.8198   -8.8778 C   0  0  0  0  0  0  0  0  0  0  0  0
   -2.9902   -0.5771   -5.4353 C   0  0  0  0  0  0  0  0  0  0  0  0
   -1.7367   -2.4628   -4.6175 C   0  0  0  0  0  0  0  0  0  0  0  0
   -6.2586   -4.9630  -11.9368 C   0  0  0  0  0  0  0  0  0  0  0  0
   -3.8790   -1.3817   -5.8909 C   0  0  0  0  0  0  0  0  0  0  0  0
   -2.6381   -3.2432   -5.1071 C   0  0  0  0  0  0  0  0  0  0  0  0
   -4.6017   -5.8118   -8.3534 C   0  0  0  0  0  0  0  0  0  0  0  0
   -5.4669   -6.6419  -10.2201 C   0  0  0  0  0  0  0  0  0  0  0  0
   -2.0540   -1.1051   -4.5434 C   0  0  0  0  0  0  0  0  0  0  0  0
   -5.9217   -5.1895  -10.6349 C   0  0  0  0  0  0  0  0  0  0  0  0
   -3.5197   -2.7378   -6.0461 C   0  0  0  0  0  0  0  0  0  0  0  0
   -5.1743   -4.5227   -8.6363 C   0  0  0  0  0  0  0  0  0  0  0  0
   -0.1799    0.1368   -5.3789 C   0  0  0  0  0  0  0  0  0  0  0  0
   -0.2263   -0.1180   -0.5028 C   0  0  0  0  0  0  0  0  0  0  0  0
    1.2838    0.0336   -1.1380 C   0  0  0  0  0  0  0  0  0  0  0  0
   -1.0629   -0.8494   -1.6961 C   0  0  0  0  0  0  0  0  0  0  0  0
    0.9417    0.4109   -2.6560 C   0  0  0  0  0  0  0  0  0  0  0  0
   -0.1996   -0.6219   -3.0214 C   0  0  0  0  0  0  0  0  0  0  0  0
   -4.9093   -3.2324   -7.8020 C   0  0  0  0  0  0  0  0  0  0  0  0
   -1.0449   -0.1753   -4.0874 C   0  0  2  0  0  0  0  0  0  0  0  0
   -5.7809   -4.2018   -9.7698 N   0  0  0  0  0  0  0  0  0  0  0  0
    0.0919    1.3794   -5.5331 O   0  0  0  0  0  0  0  0  0  0  0  0
    0.6947   -1.0881   -5.9082 O   0  0  0  0  0  0  0  0  0  0  0  0
   -1.5682    1.0660   -3.8434 O   0  0  0  0  0  0  0  0  0  0  0  0
   -4.3673   -3.6125   -6.5136 O   0  0  0  0  0  0  0  0  0  0  0  0
   -6.7312   -8.1251  -12.8249 H   0  0  0  0  0  0  0  0  0  0  0  0
   -6.7472   -5.8187  -13.7367 H   0  0  0  0  0  0  0  0  0  0  0  0
   -5.5399   -8.6294  -10.9067 H   0  0  0  0  0  0  0  0  0  0  0  0
   -4.5880   -7.7530   -8.7570 H   0  0  0  0  0  0  0  0  0  0  0  0
   -3.4015    0.3891   -5.0817 H   0  0  0  0  0  0  0  0  0  0  0  0
   -1.3360   -2.8334   -3.6593 H   0  0  0  0  0  0  0  0  0  0  0  0
   -6.8420   -4.0190  -12.0434 H   0  0  0  0  0  0  0  0  0  0  0  0
   -4.6200   -0.9913   -6.6607 H   0  0  0  0  0  0  0  0  0  0  0  0
   -2.3923   -4.3469   -5.2602 H   0  0  0  0  0  0  0  0  0  0  0  0
   -4.2347   -5.9028   -7.3012 H   0  0  0  0  0  0  0  0  0  0  0  0
   -0.2231   -0.7648    0.5171 H   0  0  0  0  0  0  0  0  0  0  0  0
   -0.6978    0.9752   -0.2974 H   0  0  0  0  0  0  0  0  0  0  0  0
    1.9455    0.8786   -0.5841 H   0  0  0  0  0  0  0  0  0  0  0  0
    1.8538   -1.0310   -1.1027 H   0  0  0  0  0  0  0  0  0  0  0  0
   -1.1541   -1.9859   -1.5047 H   0  0  0  0  0  0  0  0  0  0  0  0
   -2.1210   -0.3899   -1.7947 H   0  0  0  0  0  0  0  0  0  0  0  0
    0.5473    1.4967   -2.7116 H   0  0  0  0  0  0  0  0  0  0  0  0
    1.8551    0.2872   -3.3555 H   0  0  0  0  0  0  0  0  0  0  0  0
    0.2525   -1.5862   -3.3121 H   0  0  0  0  0  0  0  0  0  0  0  0
   -4.1067   -2.5420   -8.3798 H   0  0  0  0  0  0  0  0  0  0  0  0
   -5.9684   -2.6938   -7.6092 H   0  0  0  0  0  0  0  0  0  0  0  0
    0.0711   -2.2701   -5.6611 H   0  0  0  0  0  0  0  0  0  0  0  0
   -0.6756    1.8152   -4.7278 H   0  0  0  0  0  0  0  0  0  0  0  0
  1  2  2  0
  1  3  1  0
  1 29  1  0
  2  7  1  0
  2 30  1  0
  3 11  2  0
  3 31  1  0
  4 10  2  0
  4 11  1  0
  4 32  1  0
  5  8  2  0
  5 12  1  0
  5 33  1  0
  6  9  1  0
  6 12  2  0
  6 34  1  0
  7 13  2  0
  7 35  1  0
  8 14  1  0
  8 36  1  0
  9 14  2  0
  9 37  1  0
 10 15  1  0
 10 38  1  0
 11 13  1  0
 12 23  1  0
 13 24  1  0
 14 28  1  0
 15 22  1  0
 15 24  2  0
 16 23  1  0
 16 25  2  0
 16 26  1  0
 17 18  1  0
 17 19  1  0
 17 39  1  0
 17 40  1  0
 18 20  1  0
 18 41  1  0
 18 42  1  0
 19 21  1  0
 19 43  1  0
 19 44  1  0
 20 21  1  0
 20 45  1  0
 20 46  1  0
 21 23  1  0
 21 47  1  0
 22 28  1  0
 22 48  1  0
 22 49  1  0
 23 27  1  1
 26 50  1  0
 27 51  1  0
M  END
$$$$
