
     RDKit          3D

 24 24  0  0  0  0  0  0  0  0999 V2000
    0.3880    1.1169   -0.2325 C   0  0  0  0  0  0  0  0  0  0  0  0
    0.3678   -0.3942   -0.3023 C   0  0  0  0  0  0  0  0  0  0  0  0
    1.7198    1.9561   -0.4918 C   0  0  0  0  0  0  0  0  0  0  0  0
   -1.9658   -0.0187   -0.0280 C   0  0  0  0  0  0  0  0  0  0  0  0
   -0.7702   -0.9901    0.3218 C   0  0  1  0  0  0  0  0  0  0  0  0
   -2.3565   -3.0630    0.4687 C   0  0  0  0  0  0  0  0  0  0  0  0
    4.0811    1.9693   -1.1125 C   0  0  0  0  0  0  0  0  0  0  0  0
   -0.9695   -2.3814   -0.1928 C   0  0  0  0  0  0  0  0  0  0  0  0
    1.7881    3.1873   -0.5083 O   0  0  0  0  0  0  0  0  0  0  0  0
    1.7095   -1.0587   -0.3503 O   0  0  0  0  0  0  0  0  0  0  0  0
    2.6812    1.1995   -1.0205 O   0  0  0  0  0  0  0  0  0  0  0  0
   -1.1846    1.8405    0.2218 S   0  0  0  0  0  0  0  0  0  0  0  0
   -2.2575   -0.1777   -1.1304 H   0  0  0  0  0  0  0  0  0  0  0  0
   -2.8509   -0.1767    0.6898 H   0  0  0  0  0  0  0  0  0  0  0  0
   -0.5743   -1.0143    1.3976 H   0  0  0  0  0  0  0  0  0  0  0  0
   -2.2762   -3.0311    1.6703 H   0  0  0  0  0  0  0  0  0  0  0  0
   -2.4551   -4.2032    0.0933 H   0  0  0  0  0  0  0  0  0  0  0  0
   -3.3203   -2.4328    0.1164 H   0  0  0  0  0  0  0  0  0  0  0  0
    4.8079    1.1889   -1.0754 H   0  0  0  0  0  0  0  0  0  0  0  0
    4.1076    2.6225   -0.2668 H   0  0  0  0  0  0  0  0  0  0  0  0
    4.0439    2.4700   -2.0552 H   0  0  0  0  0  0  0  0  0  0  0  0
   -1.0150   -2.3146   -1.3693 H   0  0  0  0  0  0  0  0  0  0  0  0
   -0.0040   -2.9906    0.1025 H   0  0  0  0  0  0  0  0  0  0  0  0
    2.6064   -0.0899   -0.9534 H   0  0  0  0  0  0  0  0  0  0  0  0
  1  2  2  0
  1  3  1  0
  1 12  1  0
  2  5  1  0
  2 10  1  0
  3  9  2  0
  3 11  1  0
  4  5  1  0
  4 12  1  0
  4 13  1  0
  4 14  1  0
  5  8  1  0
  5 15  1  1
  6  8  1  0
  6 16  1  0
  6 17  1  0
  6 18  1  0
  7 11  1  0
  7 19  1  0
  7 20  1  0
  7 21  1  0
  8 22  1  0
  8 23  1  0
 10 24  1  0
M  END
$$$$
