
     RDKit          3D

 26 27  0  0  0  0  0  0  0  0999 V2000
   -3.2036    0.2223    1.6484 C   0  0  0  0  0  0  0  0  0  0  0  0
   -2.0381    2.3148    1.2919 C   0  0  0  0  0  0  0  0  0  0  0  0
   -2.8069    0.2383    3.1414 C   0  0  0  0  0  0  0  0  0  0  0  0
   -1.6267    2.3568    2.7804 C   0  0  0  0  0  0  0  0  0  0  0  0
   -0.9487   -0.9874    0.2766 C   0  0  0  0  0  0  0  0  0  0  0  0
   -0.0153    0.6871   -0.0072 C   0  0  0  0  0  0  0  0  0  0  0  0
   -2.1522    0.8979    0.8265 C   0  0  0  0  0  0  0  0  0  0  0  0
    0.3547   -0.7017   -0.3677 C   0  0  0  0  0  0  0  0  0  0  0  0
   -2.6497    1.6549    3.6425 N   0  0  0  0  0  0  0  0  0  0  0  0
   -0.9758    0.2555    0.9036 N   0  0  0  0  0  0  0  0  0  0  0  0
    0.6605   -1.1166   -1.8092 F   0  0  0  0  0  0  0  0  0  0  0  0
    1.5464   -1.2262    0.4581 F   0  0  0  0  0  0  0  0  0  0  0  0
   -3.3063   -0.8815    1.2800 H   0  0  0  0  0  0  0  0  0  0  0  0
   -4.2105    0.7982    1.4981 H   0  0  0  0  0  0  0  0  0  0  0  0
   -3.0790    2.8299    1.1521 H   0  0  0  0  0  0  0  0  0  0  0  0
   -1.2275    2.8512    0.6439 H   0  0  0  0  0  0  0  0  0  0  0  0
   -3.5950   -0.2401    3.7214 H   0  0  0  0  0  0  0  0  0  0  0  0
   -1.8613   -0.2865    3.2777 H   0  0  0  0  0  0  0  0  0  0  0  0
   -0.6635    1.8638    2.9111 H   0  0  0  0  0  0  0  0  0  0  0  0
   -1.5695    3.3960    3.1018 H   0  0  0  0  0  0  0  0  0  0  0  0
   -1.7540   -1.1054   -0.4985 H   0  0  0  0  0  0  0  0  0  0  0  0
   -0.9450   -1.8348    1.0099 H   0  0  0  0  0  0  0  0  0  0  0  0
    0.7954    1.2875    0.4806 H   0  0  0  0  0  0  0  0  0  0  0  0
   -0.4581    1.2194   -0.8926 H   0  0  0  0  0  0  0  0  0  0  0  0
   -2.4939    0.9141   -0.1953 H   0  0  0  0  0  0  0  0  0  0  0  0
   -2.2227    1.5874    4.6423 H   0  0  0  0  0  0  0  0  0  0  0  0
  1  3  1  0
  1  7  1  0
  1 13  1  0
  1 14  1  0
  2  4  1  0
  2  7  1  0
  2 15  1  0
  2 16  1  0
  3  9  1  0
  3 17  1  0
  3 18  1  0
  4  9  1  0
  4 19  1  0
  4 20  1  0
  5  8  1  0
  5 10  1  0
  5 21  1  0
  5 22  1  0
  6  8  1  0
  6 10  1  0
  6 23  1  0
  6 24  1  0
  7 10  1  0
  7 25  1  0
  8 11  1  0
  8 12  1  0
  9 26  1  0
M  END
$$$$
