
     RDKit          3D

 68 70  0  0  0  0  0  0  0  0999 V2000
    8.6628    0.5779   -2.2382 C   0  0  0  0  0  0  0  0  0  0  0  0
    6.2652    7.8221   -0.3017 C   0  0  0  0  0  0  0  0  0  0  0  0
    8.1332    0.9287   -0.9927 C   0  0  0  0  0  0  0  0  0  0  0  0
    7.8430    0.5501   -3.3682 C   0  0  0  0  0  0  0  0  0  0  0  0
    6.8964    6.5932   -0.0862 C   0  0  0  0  0  0  0  0  0  0  0  0
    5.2288    7.9262   -1.2313 C   0  0  0  0  0  0  0  0  0  0  0  0
    7.0335    1.6286   -0.8985 C   0  0  0  0  0  0  0  0  0  0  0  0
    6.7298    1.2263   -3.4077 C   0  0  0  0  0  0  0  0  0  0  0  0
    6.3048    5.4669   -0.3859 C   0  0  0  0  0  0  0  0  0  0  0  0
    4.5449    6.8786   -1.5954 C   0  0  0  0  0  0  0  0  0  0  0  0
    6.1820    1.7645   -2.1305 C   0  0  0  0  0  0  0  0  0  0  0  0
    5.0834    5.5298   -1.2600 C   0  0  0  0  0  0  0  0  0  0  0  0
    0.7573    1.4435    2.8091 C   0  0  0  0  0  0  0  0  0  0  0  0
    0.6301   -1.2564    4.9011 C   0  0  0  0  0  0  0  0  0  0  0  0
   -0.0394   -0.2497    4.1513 C   0  0  0  0  0  0  0  0  0  0  0  0
    2.1252   -0.0724    3.9248 C   0  0  0  0  0  0  0  0  0  0  0  0
   -0.8827   -0.9883    3.1150 C   0  0  0  0  0  0  0  0  0  0  0  0
   -0.7406    0.7719    5.0528 C   0  0  0  0  0  0  0  0  0  0  0  0
    2.9824    1.0949    4.5880 C   0  0  0  0  0  0  0  0  0  0  0  0
    2.7357   -1.1654    2.9431 C   0  0  0  0  0  0  0  0  0  0  0  0
    1.7275    3.9828    2.0282 C   0  0  0  0  0  0  0  0  0  0  0  0
    4.7288    1.9880   -2.0149 C   0  0  0  0  0  0  0  0  0  0  0  0
    4.7187    4.3830   -2.1100 C   0  0  0  0  0  0  0  0  0  0  0  0
    3.0628    2.3779    0.5166 C   0  0  0  0  0  0  0  0  0  0  0  0
    3.1385    3.3055   -0.5827 C   0  0  0  0  0  0  0  0  0  0  0  0
    1.8229    2.6154    1.2207 C   0  0  1  0  0  0  0  0  0  0  0  0
    0.9374    0.2689    3.4903 N   0  0  0  0  0  0  0  0  0  0  0  0
    4.5139    3.2199   -1.2395 N   0  0  0  0  0  0  0  0  0  0  0  0
   -0.3754    1.8263    2.3769 O   0  0  0  0  0  0  0  0  0  0  0  0
    1.8630   -0.6910    4.9589 O   0  0  0  0  0  0  0  0  0  0  0  0
    1.7730    1.6118    2.0459 O   0  0  0  0  0  0  0  0  0  0  0  0
    9.3013   -0.3420   -2.1705 H   0  0  0  0  0  0  0  0  0  0  0  0
    7.0101    8.6520   -0.4221 H   0  0  0  0  0  0  0  0  0  0  0  0
    8.9249    1.2628   -0.2698 H   0  0  0  0  0  0  0  0  0  0  0  0
    8.4252    0.6122   -4.3268 H   0  0  0  0  0  0  0  0  0  0  0  0
    7.4305    6.5541    0.9005 H   0  0  0  0  0  0  0  0  0  0  0  0
    4.5843    8.8302   -1.0612 H   0  0  0  0  0  0  0  0  0  0  0  0
    6.4671    1.5119    0.0277 H   0  0  0  0  0  0  0  0  0  0  0  0
    5.9766    0.8974   -4.1283 H   0  0  0  0  0  0  0  0  0  0  0  0
    6.9632    4.6214   -0.5989 H   0  0  0  0  0  0  0  0  0  0  0  0
    4.0220    6.9384   -2.5534 H   0  0  0  0  0  0  0  0  0  0  0  0
    0.2543   -1.3153    5.9778 H   0  0  0  0  0  0  0  0  0  0  0  0
    0.6981   -2.2564    4.3537 H   0  0  0  0  0  0  0  0  0  0  0  0
   -1.6774   -0.2001    2.6018 H   0  0  0  0  0  0  0  0  0  0  0  0
   -1.5274   -1.8736    3.6811 H   0  0  0  0  0  0  0  0  0  0  0  0
   -0.1697   -1.4773    2.2363 H   0  0  0  0  0  0  0  0  0  0  0  0
   -1.5605    1.4149    4.3972 H   0  0  0  0  0  0  0  0  0  0  0  0
    0.0828    1.5366    5.5540 H   0  0  0  0  0  0  0  0  0  0  0  0
   -1.3470    0.1689    5.9397 H   0  0  0  0  0  0  0  0  0  0  0  0
    2.2884    1.7098    5.3854 H   0  0  0  0  0  0  0  0  0  0  0  0
    3.4107    1.8484    3.7292 H   0  0  0  0  0  0  0  0  0  0  0  0
    3.9279    0.5785    5.1703 H   0  0  0  0  0  0  0  0  0  0  0  0
    1.9445   -2.0717    2.7357 H   0  0  0  0  0  0  0  0  0  0  0  0
    3.7520   -1.6076    3.4619 H   0  0  0  0  0  0  0  0  0  0  0  0
    3.0226   -0.6178    1.8890 H   0  0  0  0  0  0  0  0  0  0  0  0
    2.7528    4.1509    2.6029 H   0  0  0  0  0  0  0  0  0  0  0  0
    0.8248    3.9524    2.7983 H   0  0  0  0  0  0  0  0  0  0  0  0
    1.5542    4.8586    1.2462 H   0  0  0  0  0  0  0  0  0  0  0  0
    4.2261    2.0906   -3.0615 H   0  0  0  0  0  0  0  0  0  0  0  0
    4.2523    1.0947   -1.4406 H   0  0  0  0  0  0  0  0  0  0  0  0
    3.7450    4.5959   -2.7139 H   0  0  0  0  0  0  0  0  0  0  0  0
    5.5932    4.1486   -2.8456 H   0  0  0  0  0  0  0  0  0  0  0  0
    3.9337    2.5191    1.2311 H   0  0  0  0  0  0  0  0  0  0  0  0
    3.0440    1.3147    0.1182 H   0  0  0  0  0  0  0  0  0  0  0  0
    2.3206    3.0751   -1.3774 H   0  0  0  0  0  0  0  0  0  0  0  0
    2.9900    4.3935   -0.1989 H   0  0  0  0  0  0  0  0  0  0  0  0
    0.9618    2.4134    0.5102 H   0  0  0  0  0  0  0  0  0  0  0  0
    5.2138    3.2675   -0.5488 H   0  0  0  0  0  0  0  0  0  0  0  0
  1  3  2  0
  1  4  1  0
  1 32  1  0
  2  5  2  0
  2  6  1  0
  2 33  1  0
  3  7  1  0
  3 34  1  0
  4  8  2  0
  4 35  1  0
  5  9  1  0
  5 36  1  0
  6 10  2  0
  6 37  1  0
  7 11  2  0
  7 38  1  0
  8 11  1  0
  8 39  1  0
  9 12  2  0
  9 40  1  0
 10 12  1  0
 10 41  1  0
 11 22  1  0
 12 23  1  0
 13 27  1  0
 13 29  2  0
 13 31  1  0
 14 15  1  0
 14 30  1  0
 14 42  1  0
 14 43  1  0
 15 17  1  0
 15 18  1  0
 15 27  1  0
 16 19  1  0
 16 20  1  0
 16 27  1  0
 16 30  1  0
 17 44  1  0
 17 45  1  0
 17 46  1  0
 18 47  1  0
 18 48  1  0
 18 49  1  0
 19 50  1  0
 19 51  1  0
 19 52  1  0
 20 53  1  0
 20 54  1  0
 20 55  1  0
 21 26  1  0
 21 56  1  0
 21 57  1  0
 21 58  1  0
 22 28  1  0
 22 59  1  0
 22 60  1  0
 23 28  1  0
 23 61  1  0
 23 62  1  0
 24 25  1  0
 24 26  1  0
 24 63  1  0
 24 64  1  0
 25 28  1  0
 25 65  1  0
 25 66  1  0
 26 31  1  0
 26 67  1  6
 28 68  1  0
M  CHG  1  28   1
M  END
$$$$
