
     RDKit          3D

 30 31  0  0  0  0  0  0  0  0999 V2000
   -1.5730    1.7145    1.3462 C   0  0  0  0  0  0  0  0  0  0  0  0
   -1.3182    2.4500    0.1968 C   0  0  0  0  0  0  0  0  0  0  0  0
   -1.0584    0.4252    1.4694 C   0  0  0  0  0  0  0  0  0  0  0  0
   -0.5504    1.8946   -0.8263 C   0  0  0  0  0  0  0  0  0  0  0  0
   -0.2796   -0.1540    0.4470 C   0  0  0  0  0  0  0  0  0  0  0  0
   -0.0221    0.5959   -0.7140 C   0  0  0  0  0  0  0  0  0  0  0  0
    0.5902   -2.2958   -0.6262 C   0  0  0  0  0  0  0  0  0  0  0  0
    1.5956   -1.5555   -1.4903 C   0  0  0  0  0  0  0  0  0  0  0  0
    0.2524   -1.5554    0.6747 C   0  0  1  0  0  0  0  0  0  0  0  0
    1.4448   -1.5254    1.6400 C   0  0  0  0  0  0  0  0  0  0  0  0
    1.6673   -2.8781    2.3103 C   0  0  1  0  0  0  0  0  0  0  0  0
    0.6819   -3.1005    3.4407 C   0  0  0  0  0  0  0  0  0  0  0  0
    1.4996   -3.9141    1.3465 O   0  0  0  0  0  0  0  0  0  0  0  0
    0.8248   -2.1771    4.4149 F   0  0  0  0  0  0  0  0  0  0  0  0
    0.8489   -4.3198    3.9981 F   0  0  0  0  0  0  0  0  0  0  0  0
   -0.5901   -3.0322    2.9894 F   0  0  0  0  0  0  0  0  0  0  0  0
    0.9187    0.0057   -2.1172 S   0  0  0  0  0  0  0  0  0  0  0  0
   -2.1707    2.1411    2.1461 H   0  0  0  0  0  0  0  0  0  0  0  0
   -1.7163    3.4549    0.0921 H   0  0  0  0  0  0  0  0  0  0  0  0
   -1.2676   -0.1349    2.3785 H   0  0  0  0  0  0  0  0  0  0  0  0
   -0.3701    2.4942   -1.7168 H   0  0  0  0  0  0  0  0  0  0  0  0
   -0.3295   -2.4782   -1.1989 H   0  0  0  0  0  0  0  0  0  0  0  0
    0.9945   -3.2862   -0.3816 H   0  0  0  0  0  0  0  0  0  0  0  0
    2.5225   -1.3512   -0.9465 H   0  0  0  0  0  0  0  0  0  0  0  0
    1.8623   -2.1719   -2.3551 H   0  0  0  0  0  0  0  0  0  0  0  0
   -0.5440   -2.1407    1.1558 H   0  0  0  0  0  0  0  0  0  0  0  0
    2.3332   -1.2264    1.0789 H   0  0  0  0  0  0  0  0  0  0  0  0
    1.2420   -0.7566    2.3906 H   0  0  0  0  0  0  0  0  0  0  0  0
    2.6901   -2.9415    2.6981 H   0  0  0  0  0  0  0  0  0  0  0  0
    1.6489   -4.7517    1.8121 H   0  0  0  0  0  0  0  0  0  0  0  0
  1  2  2  0
  1  3  1  0
  1 18  1  0
  2  4  1  0
  2 19  1  0
  3  5  2  0
  3 20  1  0
  4  6  2  0
  4 21  1  0
  5  6  1  0
  5  9  1  0
  6 17  1  0
  7  8  1  0
  7  9  1  0
  7 22  1  0
  7 23  1  0
  8 17  1  0
  8 24  1  0
  8 25  1  0
  9 10  1  0
  9 26  1  1
 10 11  1  0
 10 27  1  0
 10 28  1  0
 11 12  1  0
 11 13  1  0
 11 29  1  1
 12 14  1  0
 12 15  1  0
 12 16  1  0
 13 30  1  0
M  END
$$$$
