
     RDKit          3D

 57 61  0  0  0  0  0  0  0  0999 V2000
   -0.7922    1.4780    1.8545 C   0  0  0  0  0  0  0  0  0  0  0  0
   -0.7395    0.3635    0.9800 C   0  0  0  0  0  0  0  0  0  0  0  0
   -1.5121   -5.3352    1.7794 C   0  0  0  0  0  0  0  0  0  0  0  0
   -1.8338    1.6177    2.7606 C   0  0  0  0  0  0  0  0  0  0  0  0
   -5.7550    2.0399    4.6069 C   0  0  0  0  0  0  0  0  0  0  0  0
   -3.6648    1.7356    5.7512 C   0  0  0  0  0  0  0  0  0  0  0  0
   -2.2998   -4.3124    1.2269 C   0  0  0  0  0  0  0  0  0  0  0  0
   -1.7315   -0.6094    0.9860 C   0  0  0  0  0  0  0  0  0  0  0  0
   -1.6624   -5.6800    3.1177 C   0  0  0  0  0  0  0  0  0  0  0  0
   -6.1618    2.9368    5.5888 C   0  0  0  0  0  0  0  0  0  0  0  0
   -4.0539    2.6387    6.7445 C   0  0  0  0  0  0  0  0  0  0  0  0
   -3.3997   -3.9852    3.3497 C   0  0  0  0  0  0  0  0  0  0  0  0
   -2.8416    0.6326    2.8154 C   0  0  0  0  0  0  0  0  0  0  0  0
   -4.4950    1.4023    4.6665 C   0  0  0  0  0  0  0  0  0  0  0  0
   -4.0288    0.4771    3.6133 C   0  0  0  0  0  0  0  0  0  0  0  0
   -3.2407   -3.6300    2.0003 C   0  0  0  0  0  0  0  0  0  0  0  0
   -2.7911   -0.4538    1.8979 C   0  0  0  0  0  0  0  0  0  0  0  0
   -5.3173    3.2461    6.6685 C   0  0  0  0  0  0  0  0  0  0  0  0
   -2.6124   -4.9996    3.8998 C   0  0  0  0  0  0  0  0  0  0  0  0
   -4.6551   -0.6868    3.1464 C   0  0  0  0  0  0  0  0  0  0  0  0
   -5.8600   -1.3649    3.6654 C   0  0  0  0  0  0  0  0  0  0  0  0
   -5.6140    5.1711   11.1625 C   0  0  0  0  0  0  0  0  0  0  0  0
   -6.8958    4.6469   10.5541 C   0  0  0  0  0  0  0  0  0  0  0  0
   -5.8412    5.2683    9.6674 C   0  0  0  0  0  0  0  0  0  0  0  0
   -3.6810   -4.7246    5.9942 C   0  0  0  0  0  0  0  0  0  0  0  0
   -4.0934   -2.5215    1.4080 C   0  0  0  0  0  0  0  0  0  0  0  0
   -5.0311    4.3908    8.7580 C   0  0  0  0  0  0  0  0  0  0  0  0
   -3.9116   -1.2316    2.0882 N   0  0  0  0  0  0  0  0  0  0  0  0
   -6.4611   -2.2148    3.0386 O   0  0  0  0  0  0  0  0  0  0  0  0
   -6.2801   -1.0473    4.9157 O   0  0  0  0  0  0  0  0  0  0  0  0
   -2.7117   -5.4012    5.2006 O   0  0  0  0  0  0  0  0  0  0  0  0
   -5.8056    4.1369    7.5754 O   0  0  0  0  0  0  0  0  0  0  0  0
   -0.0073    2.2284    1.8103 H   0  0  0  0  0  0  0  0  0  0  0  0
    0.0926    0.2690    0.2872 H   0  0  0  0  0  0  0  0  0  0  0  0
   -0.7815   -5.8563    1.1653 H   0  0  0  0  0  0  0  0  0  0  0  0
   -1.8747    2.4791    3.4195 H   0  0  0  0  0  0  0  0  0  0  0  0
   -6.4151    1.8403    3.7672 H   0  0  0  0  0  0  0  0  0  0  0  0
   -2.6947    1.2551    5.8365 H   0  0  0  0  0  0  0  0  0  0  0  0
   -2.1734   -4.0498    0.1793 H   0  0  0  0  0  0  0  0  0  0  0  0
   -1.6766   -1.4571    0.3124 H   0  0  0  0  0  0  0  0  0  0  0  0
   -1.0676   -6.4644    3.5758 H   0  0  0  0  0  0  0  0  0  0  0  0
   -7.1320    3.4211    5.5331 H   0  0  0  0  0  0  0  0  0  0  0  0
   -3.3739    2.8538    7.5610 H   0  0  0  0  0  0  0  0  0  0  0  0
   -4.1434   -3.4775    3.9510 H   0  0  0  0  0  0  0  0  0  0  0  0
   -5.6526    6.0895   11.7407 H   0  0  0  0  0  0  0  0  0  0  0  0
   -4.8885    4.4463   11.5231 H   0  0  0  0  0  0  0  0  0  0  0  0
   -7.0284    3.5699   10.4963 H   0  0  0  0  0  0  0  0  0  0  0  0
   -7.8125    5.2044   10.7209 H   0  0  0  0  0  0  0  0  0  0  0  0
   -6.0562    6.2568    9.2691 H   0  0  0  0  0  0  0  0  0  0  0  0
   -3.6087   -5.1864    6.9783 H   0  0  0  0  0  0  0  0  0  0  0  0
   -4.6943   -4.8589    5.5959 H   0  0  0  0  0  0  0  0  0  0  0  0
   -3.4609   -3.6521    6.0738 H   0  0  0  0  0  0  0  0  0  0  0  0
   -3.8353   -2.3715    0.3569 H   0  0  0  0  0  0  0  0  0  0  0  0
   -5.1496   -2.7752    1.4621 H   0  0  0  0  0  0  0  0  0  0  0  0
   -4.7932    3.4397    9.2536 H   0  0  0  0  0  0  0  0  0  0  0  0
   -4.0888    4.8821    8.4788 H   0  0  0  0  0  0  0  0  0  0  0  0
   -5.7259   -0.3380    5.2911 H   0  0  0  0  0  0  0  0  0  0  0  0
  1  2  2  0
  1  4  1  0
  1 33  1  0
  2  8  1  0
  2 34  1  0
  3  7  2  0
  3  9  1  0
  3 35  1  0
  4 13  2  0
  4 36  1  0
  5 10  2  0
  5 14  1  0
  5 37  1  0
  6 11  1  0
  6 14  2  0
  6 38  1  0
  7 16  1  0
  7 39  1  0
  8 17  2  0
  8 40  1  0
  9 19  2  0
  9 41  1  0
 10 18  1  0
 10 42  1  0
 11 18  2  0
 11 43  1  0
 12 16  2  0
 12 19  1  0
 12 44  1  0
 13 15  1  0
 13 17  1  0
 14 15  1  0
 15 20  2  0
 16 26  1  0
 17 28  1  0
 18 32  1  0
 19 31  1  0
 20 21  1  0
 20 28  1  0
 21 29  2  0
 21 30  1  0
 22 23  1  0
 22 24  1  0
 22 45  1  0
 22 46  1  0
 23 24  1  0
 23 47  1  0
 23 48  1  0
 24 27  1  0
 24 49  1  0
 25 31  1  0
 25 50  1  0
 25 51  1  0
 25 52  1  0
 26 28  1  0
 26 53  1  0
 26 54  1  0
 27 32  1  0
 27 55  1  0
 27 56  1  0
 30 57  1  0
M  END
$$$$
