
     RDKit          3D

 19 20  0  0  0  0  0  0  0  0999 V2000
    3.5330   -2.1463   -1.0818 C   0  0  0  0  0  0  0  0  0  0  0  0
    3.8208   -2.1093    0.2557 C   0  0  0  0  0  0  0  0  0  0  0  0
    1.6340   -1.2437   -0.3911 C   0  0  0  0  0  0  0  0  0  0  0  0
   -0.4994    0.8657    0.8875 C   0  0  0  0  0  0  0  0  0  0  0  0
    0.2931    0.9763   -0.4301 C   0  0  0  0  0  0  0  0  0  0  0  0
    0.2751   -0.5977   -0.4422 C   0  0  1  0  0  0  0  0  0  0  0  0
   -0.6051   -1.2150   -1.5267 C   0  0  0  0  0  0  0  0  0  0  0  0
    2.2940   -1.6561   -1.4377 N   0  0  0  0  0  0  0  0  0  0  0  0
   -0.3616   -0.5128    0.8935 N   0  0  0  0  0  0  0  0  0  0  0  0
   -1.0600    1.6337    1.6383 O   0  0  0  0  0  0  0  0  0  0  0  0
    2.4859   -1.4347    1.1329 S   0  0  0  0  0  0  0  0  0  0  0  0
    4.1951   -2.5270   -1.8521 H   0  0  0  0  0  0  0  0  0  0  0  0
    4.7166   -2.4470    0.7604 H   0  0  0  0  0  0  0  0  0  0  0  0
   -0.2569    1.4453   -1.2482 H   0  0  0  0  0  0  0  0  0  0  0  0
    1.2803    1.4302   -0.3298 H   0  0  0  0  0  0  0  0  0  0  0  0
   -1.5662   -0.6936   -1.5696 H   0  0  0  0  0  0  0  0  0  0  0  0
   -0.7875   -2.2737   -1.3170 H   0  0  0  0  0  0  0  0  0  0  0  0
   -0.1099   -1.1464   -2.4974 H   0  0  0  0  0  0  0  0  0  0  0  0
   -0.9058   -1.2100    1.3954 H   0  0  0  0  0  0  0  0  0  0  0  0
  1  2  2  0
  1  8  1  0
  1 12  1  0
  2 11  1  0
  2 13  1  0
  3  6  1  0
  3  8  2  0
  3 11  1  0
  4  5  1  0
  4  9  1  0
  4 10  2  0
  5  6  1  0
  5 14  1  0
  5 15  1  0
  6  7  1  6
  6  9  1  0
  7 16  1  0
  7 17  1  0
  7 18  1  0
  9 19  1  0
M  END
$$$$
