
     RDKit          3D

 26 27  0  0  0  0  0  0  0  0999 V2000
   -0.2749   -0.9248    0.4991 C   0  0  0  0  0  0  0  0  0  0  0  0
    0.0223   -2.1517   -0.0966 C   0  0  0  0  0  0  0  0  0  0  0  0
   -0.9164   -0.8838    1.7352 C   0  0  0  0  0  0  0  0  0  0  0  0
   -0.9883   -3.3004    1.7751 C   0  0  0  0  0  0  0  0  0  0  0  0
   -0.3236   -3.3543    0.5350 C   0  0  0  0  0  0  0  0  0  0  0  0
   -1.2709   -2.0689    2.3778 C   0  0  0  0  0  0  0  0  0  0  0  0
   -1.3874   -4.5324    2.4990 C   0  0  0  0  0  0  0  0  0  0  0  0
    0.0437   -4.6693   -0.1014 C   0  0  0  0  0  0  0  0  0  0  0  0
   -1.1668   -5.4713   -0.5829 C   0  0  0  0  0  0  0  0  0  0  0  0
   -2.3598   -5.4603    0.3684 C   0  0  0  0  0  0  0  0  0  0  0  0
   -1.9895   -1.9526    3.6843 C   0  0  0  0  0  0  0  0  0  0  0  0
   -1.9703   -5.5522    1.7642 N   0  0  0  0  0  0  0  0  0  0  0  0
   -1.1928   -4.6016    3.7104 O   0  0  0  0  0  0  0  0  0  0  0  0
   -0.0002   -0.0000   -0.0002 H   0  0  0  0  0  0  0  0  0  0  0  0
    0.5327   -2.1601   -1.0566 H   0  0  0  0  0  0  0  0  0  0  0  0
   -1.1406    0.0793    2.1866 H   0  0  0  0  0  0  0  0  0  0  0  0
    0.7245   -4.5123   -0.9477 H   0  0  0  0  0  0  0  0  0  0  0  0
    0.6194   -5.2588    0.6240 H   0  0  0  0  0  0  0  0  0  0  0  0
   -1.5012   -5.0762   -1.5506 H   0  0  0  0  0  0  0  0  0  0  0  0
   -0.8491   -6.5050   -0.7661 H   0  0  0  0  0  0  0  0  0  0  0  0
   -2.9461   -4.5434    0.2379 H   0  0  0  0  0  0  0  0  0  0  0  0
   -3.0235   -6.3037    0.1504 H   0  0  0  0  0  0  0  0  0  0  0  0
   -3.0719   -1.9224    3.5186 H   0  0  0  0  0  0  0  0  0  0  0  0
   -1.7577   -2.8009    4.3386 H   0  0  0  0  0  0  0  0  0  0  0  0
   -1.6904   -1.0435    4.2191 H   0  0  0  0  0  0  0  0  0  0  0  0
   -2.1385   -6.4337    2.2394 H   0  0  0  0  0  0  0  0  0  0  0  0
  1  2  2  0
  1  3  1  0
  1 14  1  0
  2  5  1  0
  2 15  1  0
  3  6  2  0
  3 16  1  0
  4  5  2  0
  4  6  1  0
  4  7  1  0
  5  8  1  0
  6 11  1  0
  7 12  1  0
  7 13  2  0
  8  9  1  0
  8 17  1  0
  8 18  1  0
  9 10  1  0
  9 19  1  0
  9 20  1  0
 10 12  1  0
 10 21  1  0
 10 22  1  0
 11 23  1  0
 11 24  1  0
 11 25  1  0
 12 26  1  0
M  END
$$$$
