
     RDKit          3D

 14 14  0  0  0  0  0  0  0  0999 V2000
   -0.6733    0.0878   -3.3363 C   0  0  0  0  0  0  0  0  0  0  0  0
   -0.2751    0.7657   -2.2190 C   0  0  0  0  0  0  0  0  0  0  0  0
   -0.5173    0.0262   -1.0107 C   0  0  0  0  0  0  0  0  0  0  0  0
   -1.0971   -1.1971   -1.2303 C   0  0  0  0  0  0  0  0  0  0  0  0
   -1.5531   -2.2366   -0.2461 C   0  0  0  0  0  0  0  0  0  0  0  0
   -1.4377   -3.5772   -0.8360 N   0  0  0  0  0  0  0  0  0  0  0  0
   -1.3439   -1.4610   -2.9364 S   0  0  0  0  0  0  0  0  0  0  0  0
    0.5258    2.4866   -2.2816 Br  0  0  0  0  0  0  0  0  0  0  0  0
   -0.0996    0.6853    0.7241 Br  0  0  0  0  0  0  0  0  0  0  0  0
   -0.5881    0.4063   -4.3665 H   0  0  0  0  0  0  0  0  0  0  0  0
   -0.9983   -2.0934    0.6916 H   0  0  0  0  0  0  0  0  0  0  0  0
   -2.6126   -2.0673   -0.0167 H   0  0  0  0  0  0  0  0  0  0  0  0
   -1.8624   -4.2660   -0.2184 H   0  0  0  0  0  0  0  0  0  0  0  0
   -0.4556   -3.8283   -0.9382 H   0  0  0  0  0  0  0  0  0  0  0  0
  1  2  2  0
  1  7  1  0
  1 10  1  0
  2  3  1  0
  2  8  1  0
  3  4  2  0
  3  9  1  0
  4  5  1  0
  4  7  1  0
  5  6  1  0
  5 11  1  0
  5 12  1  0
  6 13  1  0
  6 14  1  0
M  END
$$$$
