
     RDKit          3D

 35 36  0  0  0  0  0  0  0  0999 V2000
    4.5045   -4.6035   -1.6944 C   0  0  0  0  0  0  0  0  0  0  0  0
    4.9544   -3.5587   -2.5237 C   0  0  0  0  0  0  0  0  0  0  0  0
    1.4948   -1.8298   -0.7067 C   0  0  0  0  0  0  0  0  0  0  0  0
    0.6874    1.3223    0.8743 C   0  0  0  0  0  0  0  0  0  0  0  0
    1.1025   -0.1354    1.1033 C   0  0  0  0  0  0  0  0  0  0  0  0
   -0.7451   -0.8897   -0.3488 C   0  0  0  0  0  0  0  0  0  0  0  0
   -1.1906    0.5575   -0.6045 C   0  0  2  0  0  0  0  0  0  0  0  0
   -0.8164    1.4830    0.5774 C   0  0  1  0  0  0  0  0  0  0  0  0
   -2.6731    0.5992   -0.9792 C   0  0  0  0  0  0  0  0  0  0  0  0
   -1.6591    1.2438    1.8350 C   0  0  0  0  0  0  0  0  0  0  0  0
    2.9615   -1.8257   -0.2368 C   0  0  0  0  0  0  0  0  0  0  0  0
    3.7346   -4.0924   -0.7277 N   0  0  0  0  0  0  0  0  0  0  0  0
    4.4547   -2.4109   -2.0514 N   0  0  0  0  0  0  0  0  0  0  0  0
    3.7374   -2.7838   -0.9872 N   0  0  0  0  0  0  0  0  0  0  0  0
    0.6792   -0.9689   -0.0187 N   0  0  0  0  0  0  0  0  0  0  0  0
    1.1359   -2.5463   -1.6356 O   0  0  0  0  0  0  0  0  0  0  0  0
   -1.0564    2.8216    0.1048 O   0  0  0  0  0  0  0  0  0  0  0  0
    4.6975   -5.6661   -1.7445 H   0  0  0  0  0  0  0  0  0  0  0  0
    5.5933   -3.5756   -3.3961 H   0  0  0  0  0  0  0  0  0  0  0  0
    0.9606    1.9173    1.7556 H   0  0  0  0  0  0  0  0  0  0  0  0
    1.2434    1.7229    0.0196 H   0  0  0  0  0  0  0  0  0  0  0  0
    2.1832   -0.1833    1.2331 H   0  0  0  0  0  0  0  0  0  0  0  0
    0.6539   -0.5229    2.0282 H   0  0  0  0  0  0  0  0  0  0  0  0
   -1.3251   -1.3317    0.4734 H   0  0  0  0  0  0  0  0  0  0  0  0
   -0.9165   -1.5011   -1.2347 H   0  0  0  0  0  0  0  0  0  0  0  0
   -0.6174    0.9323   -1.4616 H   0  0  0  0  0  0  0  0  0  0  0  0
   -3.3039    0.1849   -0.1864 H   0  0  0  0  0  0  0  0  0  0  0  0
   -2.8491    0.0074   -1.8831 H   0  0  0  0  0  0  0  0  0  0  0  0
   -2.9921    1.6254   -1.1735 H   0  0  0  0  0  0  0  0  0  0  0  0
   -2.7185    1.4068    1.6272 H   0  0  0  0  0  0  0  0  0  0  0  0
   -1.3602    1.9427    2.6254 H   0  0  0  0  0  0  0  0  0  0  0  0
   -1.5364    0.2318    2.2296 H   0  0  0  0  0  0  0  0  0  0  0  0
    3.0364   -2.0802    0.8217 H   0  0  0  0  0  0  0  0  0  0  0  0
    3.4048   -0.8411   -0.3987 H   0  0  0  0  0  0  0  0  0  0  0  0
   -0.8265    3.4356    0.8210 H   0  0  0  0  0  0  0  0  0  0  0  0
  1  2  1  0
  1 12  2  0
  1 18  1  0
  2 13  2  0
  2 19  1  0
  3 11  1  0
  3 15  1  0
  3 16  2  0
  4  5  1  0
  4  8  1  0
  4 20  1  0
  4 21  1  0
  5 15  1  0
  5 22  1  0
  5 23  1  0
  6  7  1  0
  6 15  1  0
  6 24  1  0
  6 25  1  0
  7  8  1  0
  7  9  1  0
  7 26  1  6
  8 10  1  0
  8 17  1  6
  9 27  1  0
  9 28  1  0
  9 29  1  0
 10 30  1  0
 10 31  1  0
 10 32  1  0
 11 14  1  0
 11 33  1  0
 11 34  1  0
 12 14  1  0
 13 14  1  0
 17 35  1  0
M  END
$$$$
