
     RDKit          3D

 19 19  0  0  0  0  0  0  0  0999 V2000
    1.3852   -0.0537    1.6171 C   0  0  0  0  0  0  0  0  0  0  0  0
    0.1999   -0.4372    0.9741 C   0  0  0  0  0  0  0  0  0  0  0  0
    1.6953   -0.5780    2.8650 C   0  0  0  0  0  0  0  0  0  0  0  0
   -0.6205   -1.3460    1.6419 C   0  0  0  0  0  0  0  0  0  0  0  0
    0.7903   -1.4988    3.4589 C   0  0  0  0  0  0  0  0  0  0  0  0
    2.2297   -1.7155    5.4308 C   0  0  0  0  0  0  0  0  0  0  0  0
    0.0520   -2.9925    5.2434 C   0  0  0  0  0  0  0  0  0  0  0  0
   -0.3520   -1.8701    2.8435 N   0  0  0  0  0  0  0  0  0  0  0  0
    1.0296   -2.0603    4.6907 N   0  0  0  0  0  0  0  0  0  0  0  0
    2.0655    0.6524    1.1465 H   0  0  0  0  0  0  0  0  0  0  0  0
   -0.0760   -0.0487   -0.0011 H   0  0  0  0  0  0  0  0  0  0  0  0
    2.6102   -0.2846    3.3659 H   0  0  0  0  0  0  0  0  0  0  0  0
   -1.5540   -1.6775    1.1872 H   0  0  0  0  0  0  0  0  0  0  0  0
    2.2382   -2.2603    6.3754 H   0  0  0  0  0  0  0  0  0  0  0  0
    2.2754   -0.6421    5.6620 H   0  0  0  0  0  0  0  0  0  0  0  0
    3.1417   -1.9849    4.8803 H   0  0  0  0  0  0  0  0  0  0  0  0
    0.4048   -3.3348    6.2180 H   0  0  0  0  0  0  0  0  0  0  0  0
   -0.0841   -3.8599    4.5890 H   0  0  0  0  0  0  0  0  0  0  0  0
   -0.9271   -2.5171    5.3658 H   0  0  0  0  0  0  0  0  0  0  0  0
  1  2  2  0
  1  3  1  0
  1 10  1  0
  2  4  1  0
  2 11  1  0
  3  5  2  0
  3 12  1  0
  4  8  2  0
  4 13  1  0
  5  8  1  0
  5  9  1  0
  6  9  1  0
  6 14  1  0
  6 15  1  0
  6 16  1  0
  7  9  1  0
  7 17  1  0
  7 18  1  0
  7 19  1  0
M  END
$$$$
