
     RDKit          3D

 19 19  0  0  0  0  0  0  0  0999 V2000
   -4.7616    1.3926   -4.1190 C   0  0  0  0  0  0  0  0  0  0  0  0
   -3.7919    1.7008   -3.1163 C   0  0  0  0  0  0  0  0  0  0  0  0
   -4.8774    0.0469   -4.3351 C   0  0  0  0  0  0  0  0  0  0  0  0
   -3.1808    0.5690   -2.6135 C   0  0  0  0  0  0  0  0  0  0  0  0
   -1.6356   -0.6305   -1.1996 C   0  0  0  0  0  0  0  0  0  0  0  0
   -0.3979   -0.6140   -0.3176 C   0  0  0  0  0  0  0  0  0  0  0  0
   -1.7205    1.8835   -1.1536 C   0  0  0  0  0  0  0  0  0  0  0  0
   -2.1401    0.5796   -1.6707 N   0  0  0  0  0  0  0  0  0  0  0  0
   -2.1433   -1.7026   -1.5220 O   0  0  0  0  0  0  0  0  0  0  0  0
   -3.8348   -0.9031   -3.3176 S   0  0  0  0  0  0  0  0  0  0  0  0
   -5.3437    2.1462   -4.6396 H   0  0  0  0  0  0  0  0  0  0  0  0
   -3.5724    2.7133   -2.7992 H   0  0  0  0  0  0  0  0  0  0  0  0
   -5.5395   -0.4643   -5.0224 H   0  0  0  0  0  0  0  0  0  0  0  0
   -0.6687   -0.4816    0.7353 H   0  0  0  0  0  0  0  0  0  0  0  0
    0.3312    0.1521   -0.5854 H   0  0  0  0  0  0  0  0  0  0  0  0
    0.0603   -1.5982   -0.4242 H   0  0  0  0  0  0  0  0  0  0  0  0
   -2.4221    2.2464   -0.3935 H   0  0  0  0  0  0  0  0  0  0  0  0
   -1.6748    2.6108   -1.9668 H   0  0  0  0  0  0  0  0  0  0  0  0
   -0.7309    1.8222   -0.7103 H   0  0  0  0  0  0  0  0  0  0  0  0
  1  2  1  0
  1  3  2  0
  1 11  1  0
  2  4  2  0
  2 12  1  0
  3 10  1  0
  3 13  1  0
  4  8  1  0
  4 10  1  0
  5  6  1  0
  5  8  1  0
  5  9  2  0
  6 14  1  0
  6 15  1  0
  6 16  1  0
  7  8  1  0
  7 17  1  0
  7 18  1  0
  7 19  1  0
M  END
$$$$
