
     RDKit          3D

 21 22  0  0  0  0  0  0  0  0999 V2000
    1.8158   -0.9809   -0.1326 C   0  0  0  0  0  0  0  0  0  0  0  0
    0.8498   -0.3770    0.6675 C   0  0  0  0  0  0  0  0  0  0  0  0
    2.8360   -1.7394    0.4506 C   0  0  0  0  0  0  0  0  0  0  0  0
    0.8561   -0.5205    2.0655 C   0  0  0  0  0  0  0  0  0  0  0  0
    1.8929   -1.2755    2.6272 C   0  0  0  0  0  0  0  0  0  0  0  0
    2.8742   -1.8794    1.8375 C   0  0  0  0  0  0  0  0  0  0  0  0
   -0.2403    0.1596    2.8427 C   0  0  0  0  0  0  0  0  0  0  0  0
   -2.0804   -0.0904    4.6169 C   0  0  0  0  0  0  0  0  0  0  0  0
   -0.9640    0.6645    5.2547 C   0  0  0  0  0  0  0  0  0  0  0  0
   -0.6520   -0.3758    4.1651 C   0  0  0  0  0  0  0  0  0  0  0  0
   -0.8056    1.1327    2.3470 O   0  0  0  0  0  0  0  0  0  0  0  0
    1.9857   -1.4063    3.9677 F   0  0  0  0  0  0  0  0  0  0  0  0
    4.2674   -2.8841    2.6657 Br  0  0  0  0  0  0  0  0  0  0  0  0
    1.7839   -0.8649   -1.2119 H   0  0  0  0  0  0  0  0  0  0  0  0
    0.0585    0.2238    0.2319 H   0  0  0  0  0  0  0  0  0  0  0  0
    3.5987   -2.2130   -0.1593 H   0  0  0  0  0  0  0  0  0  0  0  0
   -2.5699   -0.8787    5.1805 H   0  0  0  0  0  0  0  0  0  0  0  0
   -2.7014    0.4427    3.9047 H   0  0  0  0  0  0  0  0  0  0  0  0
   -0.8273    1.6999    4.9613 H   0  0  0  0  0  0  0  0  0  0  0  0
   -0.6554    0.4091    6.2633 H   0  0  0  0  0  0  0  0  0  0  0  0
   -0.2003   -1.2983    4.5009 H   0  0  0  0  0  0  0  0  0  0  0  0
  1  2  2  0
  1  3  1  0
  1 14  1  0
  2  4  1  0
  2 15  1  0
  3  6  2  0
  3 16  1  0
  4  5  2  0
  4  7  1  0
  5  6  1  0
  5 12  1  0
  6 13  1  0
  7 10  1  0
  7 11  2  0
  8  9  1  0
  8 10  1  0
  8 17  1  0
  8 18  1  0
  9 10  1  0
  9 19  1  0
  9 20  1  0
 10 21  1  0
M  END
$$$$
