
     RDKit          3D

 43 44  0  0  0  0  0  0  0  0999 V2000
    4.7879   -3.1427   -3.8280 C   0  0  0  0  0  0  0  0  0  0  0  0
    3.8735   -2.4153   -4.6037 C   0  0  0  0  0  0  0  0  0  0  0  0
    4.5428   -3.3578   -2.4642 C   0  0  0  0  0  0  0  0  0  0  0  0
    2.7148   -1.8964   -4.0154 C   0  0  0  0  0  0  0  0  0  0  0  0
    3.3859   -2.8420   -1.8696 C   0  0  0  0  0  0  0  0  0  0  0  0
   -0.7456   -0.2547    2.2350 C   0  0  0  0  0  0  0  0  0  0  0  0
    1.1002    0.5518    1.6631 C   0  0  0  0  0  0  0  0  0  0  0  0
    2.4876   -2.1093   -2.6519 C   0  0  0  0  0  0  0  0  0  0  0  0
    0.1988    4.9605   -0.5732 C   0  0  0  0  0  0  0  0  0  0  0  0
   -1.5167    3.3549   -1.4871 C   0  0  0  0  0  0  0  0  0  0  0  0
   -0.9164    3.3237    0.9540 C   0  0  0  0  0  0  0  0  0  0  0  0
    1.5977    0.2234   -1.3770 C   0  0  0  0  0  0  0  0  0  0  0  0
    0.4792    1.0478   -0.7314 C   0  0  2  0  0  0  0  0  0  0  0  0
    0.8114    2.5707   -0.7742 C   0  0  2  0  0  0  0  0  0  0  0  0
   -0.3658    3.5344   -0.4741 C   0  0  0  0  0  0  0  0  0  0  0  0
    0.4990    0.0230    2.7257 N   0  0  0  0  0  0  0  0  0  0  0  0
   -0.9519    0.0674    0.9654 N   0  0  0  0  0  0  0  0  0  0  0  0
    0.2556    0.5815    0.6022 N   0  0  0  0  0  0  0  0  0  0  0  0
   -0.0193   -1.1975   -2.9210 O   0  0  0  0  0  0  0  0  0  0  0  0
    0.7058   -2.2240   -0.6705 O   0  0  0  0  0  0  0  0  0  0  0  0
    1.4384    2.9158   -2.0222 O   0  0  0  0  0  0  0  0  0  0  0  0
    1.0033   -1.4338   -1.8783 S   0  0  0  0  0  0  0  0  0  0  0  0
    5.6851   -3.5496   -4.2879 H   0  0  0  0  0  0  0  0  0  0  0  0
    4.0566   -2.2609   -5.6636 H   0  0  0  0  0  0  0  0  0  0  0  0
    5.2447   -3.9336   -1.8670 H   0  0  0  0  0  0  0  0  0  0  0  0
    1.9813   -1.3513   -4.6002 H   0  0  0  0  0  0  0  0  0  0  0  0
    3.1629   -3.0162   -0.8219 H   0  0  0  0  0  0  0  0  0  0  0  0
   -1.5258   -0.7110    2.8304 H   0  0  0  0  0  0  0  0  0  0  0  0
    2.1217    0.9092    1.6239 H   0  0  0  0  0  0  0  0  0  0  0  0
    1.0375    5.1058    0.1176 H   0  0  0  0  0  0  0  0  0  0  0  0
    0.5538    5.1906   -1.5811 H   0  0  0  0  0  0  0  0  0  0  0  0
   -0.5854    5.6756   -0.3061 H   0  0  0  0  0  0  0  0  0  0  0  0
   -1.9507    2.3506   -1.4635 H   0  0  0  0  0  0  0  0  0  0  0  0
   -1.2095    3.5669   -2.5203 H   0  0  0  0  0  0  0  0  0  0  0  0
   -2.3197    4.0550   -1.2462 H   0  0  0  0  0  0  0  0  0  0  0  0
   -1.3397    2.3330    1.1071 H   0  0  0  0  0  0  0  0  0  0  0  0
   -0.1389    3.4804    1.7112 H   0  0  0  0  0  0  0  0  0  0  0  0
   -1.7112    4.0528    1.1379 H   0  0  0  0  0  0  0  0  0  0  0  0
    1.9650    0.7147   -2.2739 H   0  0  0  0  0  0  0  0  0  0  0  0
    2.4438    0.0776   -0.7002 H   0  0  0  0  0  0  0  0  0  0  0  0
   -0.4694    0.8613   -1.2335 H   0  0  0  0  0  0  0  0  0  0  0  0
    1.5822    2.7561   -0.0232 H   0  0  0  0  0  0  0  0  0  0  0  0
    0.7921    2.7962   -2.7398 H   0  0  0  0  0  0  0  0  0  0  0  0
  1  2  2  0
  1  3  1  0
  1 23  1  0
  2  4  1  0
  2 24  1  0
  3  5  2  0
  3 25  1  0
  4  8  2  0
  4 26  1  0
  5  8  1  0
  5 27  1  0
  6 16  1  0
  6 17  2  0
  6 28  1  0
  7 16  2  0
  7 18  1  0
  7 29  1  0
  8 22  1  0
  9 15  1  0
  9 30  1  0
  9 31  1  0
  9 32  1  0
 10 15  1  0
 10 33  1  0
 10 34  1  0
 10 35  1  0
 11 15  1  0
 11 36  1  0
 11 37  1  0
 11 38  1  0
 12 13  1  0
 12 22  1  0
 12 39  1  0
 12 40  1  0
 13 14  1  0
 13 18  1  0
 13 41  1  6
 14 15  1  0
 14 21  1  0
 14 42  1  1
 17 18  1  0
 19 22  2  0
 20 22  2  0
 21 43  1  0
M  END
$$$$
