
     RDKit          3D

 26 27  0  0  0  0  0  0  0  0999 V2000
   -0.4401   -1.0779    0.5541 C   0  0  0  0  0  0  0  0  0  0  0  0
    0.0459   -2.1347   -0.0026 C   0  0  0  0  0  0  0  0  0  0  0  0
   -0.4224   -1.0506    1.8428 C   0  0  0  0  0  0  0  0  0  0  0  0
   -1.1847   -3.3086    1.6768 C   0  0  0  0  0  0  0  0  0  0  0  0
   -0.5519   -3.2881    0.4020 C   0  0  0  0  0  0  0  0  0  0  0  0
   -1.1789   -2.0779    2.4066 C   0  0  0  0  0  0  0  0  0  0  0  0
   -1.4475   -4.5371    2.3367 C   0  0  0  0  0  0  0  0  0  0  0  0
    0.0224   -4.5611   -0.0487 C   0  0  0  0  0  0  0  0  0  0  0  0
   -1.0727   -5.5753   -0.5001 C   0  0  0  0  0  0  0  0  0  0  0  0
   -2.4057   -5.3904    0.2673 C   0  0  0  0  0  0  0  0  0  0  0  0
   -1.9366   -1.9763    3.6993 C   0  0  0  0  0  0  0  0  0  0  0  0
   -2.2399   -5.3905    1.7479 N   0  0  0  0  0  0  0  0  0  0  0  0
   -1.2751   -4.7129    3.4082 O   0  0  0  0  0  0  0  0  0  0  0  0
   -0.0565   -0.1358    0.0907 H   0  0  0  0  0  0  0  0  0  0  0  0
   -0.0099   -2.0912   -1.1110 H   0  0  0  0  0  0  0  0  0  0  0  0
   -0.6930   -0.0873    2.2895 H   0  0  0  0  0  0  0  0  0  0  0  0
    0.7242   -4.3510   -0.9014 H   0  0  0  0  0  0  0  0  0  0  0  0
    0.5835   -4.9778    0.8326 H   0  0  0  0  0  0  0  0  0  0  0  0
   -1.2874   -5.3847   -1.5242 H   0  0  0  0  0  0  0  0  0  0  0  0
   -0.7204   -6.5679   -0.3525 H   0  0  0  0  0  0  0  0  0  0  0  0
   -2.8366   -4.4238   -0.0074 H   0  0  0  0  0  0  0  0  0  0  0  0
   -3.0944   -6.2024    0.0231 H   0  0  0  0  0  0  0  0  0  0  0  0
   -2.8765   -2.6564    3.6466 H   0  0  0  0  0  0  0  0  0  0  0  0
   -1.2330   -2.3392    4.5491 H   0  0  0  0  0  0  0  0  0  0  0  0
   -2.2328   -0.8681    3.8749 H   0  0  0  0  0  0  0  0  0  0  0  0
   -2.1973   -6.2375    2.1608 H   0  0  0  0  0  0  0  0  0  0  0  0
  1  2  2  0
  1  3  1  0
  1 14  1  0
  2  5  1  0
  2 15  1  0
  3  6  2  0
  3 16  1  0
  4  5  2  0
  4  6  1  0
  4  7  1  0
  5  8  1  0
  6 11  1  0
  7 12  1  0
  7 13  2  0
  8  9  1  0
  8 17  1  0
  8 18  1  0
  9 10  1  0
  9 19  1  0
  9 20  1  0
 10 12  1  0
 10 21  1  0
 10 22  1  0
 11 23  1  0
 11 24  1  0
 11 25  1  0
 12 26  1  0
M  END
$$$$
