
     RDKit          3D

 48 50  0  0  0  0  0  0  0  0999 V2000
   -4.1939    1.3830   -1.0669 C   0  0  0  0  0  0  0  0  0  0  0  0
    3.9529    2.4759    1.2408 C   0  0  0  0  0  0  0  0  0  0  0  0
   -2.9988    1.6869   -1.2958 C   0  0  0  0  0  0  0  0  0  0  0  0
    2.9891    2.5808    0.4122 C   0  0  0  0  0  0  0  0  0  0  0  0
   -3.5876    0.3986    1.2661 C   0  0  0  0  0  0  0  0  0  0  0  0
    1.9279    0.6098    1.4044 C   0  0  0  0  0  0  0  0  0  0  0  0
   -2.3314    0.8029    0.9849 C   0  0  0  0  0  0  0  0  0  0  0  0
   -4.5422    0.4426    0.1023 C   0  0  0  0  0  0  0  0  0  0  0  0
    4.1923    1.2941    1.7755 C   0  0  0  0  0  0  0  0  0  0  0  0
    3.1494    0.4507    2.1116 C   0  0  0  0  0  0  0  0  0  0  0  0
    1.8018    1.9317    0.6594 C   0  0  0  0  0  0  0  0  0  0  0  0
   -2.0581    1.6506   -0.2728 C   0  0  0  0  0  0  0  0  0  0  0  0
    1.1891   -0.6573    0.7809 C   0  0  0  0  0  0  0  0  0  0  0  0
    8.1729   -1.0609   -0.0179 C   0  0  0  0  0  0  0  0  0  0  0  0
    7.4340   -0.5948    1.3945 C   0  0  0  0  0  0  0  0  0  0  0  0
   -1.0366    0.3867    1.7327 C   0  0  0  0  0  0  0  0  0  0  0  0
   -5.7714   -0.5196    0.0275 C   0  0  0  0  0  0  0  0  0  0  0  0
    7.8732   -1.0751    2.8029 C   0  0  0  0  0  0  0  0  0  0  0  0
    2.1554   -1.0848    3.6142 C   0  0  0  0  0  0  0  0  0  0  0  0
    5.9514   -0.2701    1.2855 C   0  0  0  0  0  0  0  0  0  0  0  0
    5.5286    0.8449    2.1975 C   0  0  1  0  0  0  0  0  0  0  0  0
    1.7882   -1.6027    0.2890 O   0  0  0  0  0  0  0  0  0  0  0  0
   -0.2786   -0.7537    0.8376 O   0  0  0  0  0  0  0  0  0  0  0  0
    6.5802    2.0010    2.1371 O   0  0  0  0  0  0  0  0  0  0  0  0
    3.3574   -0.4459    2.9016 O   0  0  0  0  0  0  0  0  0  0  0  0
    0.0380    2.3047   -0.7202 S   0  0  0  0  0  0  0  0  0  0  0  0
   -4.8204    1.2498   -1.9518 H   0  0  0  0  0  0  0  0  0  0  0  0
    4.8842    2.9412    0.8898 H   0  0  0  0  0  0  0  0  0  0  0  0
   -2.7501    2.4042   -2.1497 H   0  0  0  0  0  0  0  0  0  0  0  0
    2.8666    3.5768   -0.1392 H   0  0  0  0  0  0  0  0  0  0  0  0
   -3.6247   -0.5221    1.9010 H   0  0  0  0  0  0  0  0  0  0  0  0
    7.4475   -1.0937   -1.1952 H   0  0  0  0  0  0  0  0  0  0  0  0
    9.2799   -1.8883    0.0273 H   0  0  0  0  0  0  0  0  0  0  0  0
   -0.3007    1.4025    1.8363 H   0  0  0  0  0  0  0  0  0  0  0  0
   -1.3467   -0.1565    2.8358 H   0  0  0  0  0  0  0  0  0  0  0  0
   -5.3962   -1.5937   -0.2198 H   0  0  0  0  0  0  0  0  0  0  0  0
   -6.3234   -0.5244    1.0526 H   0  0  0  0  0  0  0  0  0  0  0  0
   -6.4951   -0.1618   -0.8114 H   0  0  0  0  0  0  0  0  0  0  0  0
    7.3868   -0.4344    3.6369 H   0  0  0  0  0  0  0  0  0  0  0  0
    9.0236   -0.9705    2.9071 H   0  0  0  0  0  0  0  0  0  0  0  0
    7.5828   -2.1872    2.9602 H   0  0  0  0  0  0  0  0  0  0  0  0
    2.5623   -1.4806    4.5180 H   0  0  0  0  0  0  0  0  0  0  0  0
    1.8088   -1.8491    2.9555 H   0  0  0  0  0  0  0  0  0  0  0  0
    1.4509   -0.2982    3.7766 H   0  0  0  0  0  0  0  0  0  0  0  0
    5.3138   -1.2318    1.5067 H   0  0  0  0  0  0  0  0  0  0  0  0
    5.7027    0.0559    0.1837 H   0  0  0  0  0  0  0  0  0  0  0  0
    5.4325    0.4972    3.2653 H   0  0  0  0  0  0  0  0  0  0  0  0
    7.6976    1.4805    2.0330 H   0  0  0  0  0  0  0  0  0  0  0  0
  1  3  2  0
  1  8  1  0
  1 27  1  0
  2  4  1  0
  2  9  2  0
  2 28  1  0
  3 12  1  0
  3 29  1  0
  4 11  2  0
  4 30  1  0
  5  7  1  0
  5  8  2  0
  5 31  1  0
  6 10  2  0
  6 11  1  0
  6 13  1  0
  7 12  2  0
  7 16  1  0
  8 17  1  0
  9 10  1  0
  9 21  1  0
 10 25  1  0
 11 26  1  0
 12 26  1  0
 13 22  2  0
 13 23  1  0
 14 15  2  3
 14 32  1  0
 14 33  1  0
 15 18  1  0
 15 20  1  0
 16 23  1  0
 16 34  1  0
 16 35  1  0
 17 36  1  0
 17 37  1  0
 17 38  1  0
 18 39  1  0
 18 40  1  0
 18 41  1  0
 19 25  1  0
 19 42  1  0
 19 43  1  0
 19 44  1  0
 20 21  1  0
 20 45  1  0
 20 46  1  0
 21 24  1  0
 21 47  1  1
 24 48  1  0
M  END
$$$$
