
     RDKit          3D

  9  8  0  0  0  0  0  0  0  0999 V2000
    0.1582   -0.2179    0.0462 C   0  0  0  0  0  0  0  0  0  0  0  0
    0.1474    1.0865   -0.9989 C   0  0  0  0  0  0  0  0  0  0  0  0
    0.9837   -1.3065    0.0351 O   0  0  0  0  0  0  0  0  0  0  0  0
   -0.9732   -1.7942    1.5998 O   0  0  0  0  0  0  0  0  0  0  0  0
   -1.1789   -0.5399    0.6748 O   0  0  0  0  0  0  0  0  0  0  0  0
   -0.2192    0.7338   -2.0160 H   0  0  0  0  0  0  0  0  0  0  0  0
   -0.5611    1.8827   -0.6017 H   0  0  0  0  0  0  0  0  0  0  0  0
    1.2008    1.5032   -1.0981 H   0  0  0  0  0  0  0  0  0  0  0  0
    0.0018   -2.4974    1.0628 H   0  0  0  0  0  0  0  0  0  0  0  0
  1  2  1  0
  1  3  2  0
  1  5  1  0
  2  6  1  0
  2  7  1  0
  2  8  1  0
  4  5  1  0
  4  9  1  0
M  END
$$$$
