
     RDKit          3D

 28 29  0  0  0  0  0  0  0  0999 V2000
    1.8070   -0.9196   -0.0213 C   0  0  0  0  0  0  0  0  0  0  0  0
    1.0055   -0.2494    0.6504 C   0  0  0  0  0  0  0  0  0  0  0  0
    2.9822   -1.7044    2.0168 C   0  0  0  0  0  0  0  0  0  0  0  0
    3.0210   -1.3829    0.6301 C   0  0  0  0  0  0  0  0  0  0  0  0
    0.9546   -0.3250    2.0440 C   0  0  0  0  0  0  0  0  0  0  0  0
    2.1648   -0.9434    2.7296 C   0  0  0  0  0  0  0  0  0  0  0  0
    2.1825    0.2968    4.8810 C   0  0  0  0  0  0  0  0  0  0  0  0
    4.7291   -1.5498   -1.4271 C   0  0  0  0  0  0  0  0  0  0  0  0
    5.5219   -2.1019   -0.0339 C   0  0  0  0  0  0  0  0  0  0  0  0
    3.9269   -2.2572   -0.2193 C   0  0  0  0  0  0  0  0  0  0  0  0
   -0.2687    0.0127    2.7968 C   0  0  0  0  0  0  0  0  0  0  0  0
    2.1410   -1.1104    4.1499 C   0  0  0  0  0  0  0  0  0  0  0  0
    3.1757    1.0759    4.5851 O   0  0  0  0  0  0  0  0  0  0  0  0
    1.4993    0.3386    6.4064 O   0  0  0  0  0  0  0  0  0  0  0  0
    2.0253   -0.4773   -1.0125 H   0  0  0  0  0  0  0  0  0  0  0  0
    0.0647    0.0394    0.1774 H   0  0  0  0  0  0  0  0  0  0  0  0
    3.9933   -1.7459    2.4685 H   0  0  0  0  0  0  0  0  0  0  0  0
    4.4990   -0.3212   -1.5473 H   0  0  0  0  0  0  0  0  0  0  0  0
    4.8445   -2.2467   -2.4649 H   0  0  0  0  0  0  0  0  0  0  0  0
    6.1713   -3.1721   -0.1291 H   0  0  0  0  0  0  0  0  0  0  0  0
    5.8589   -1.2673    0.8421 H   0  0  0  0  0  0  0  0  0  0  0  0
    3.5444   -3.3684   -0.4537 H   0  0  0  0  0  0  0  0  0  0  0  0
   -0.7934   -0.9781    3.0884 H   0  0  0  0  0  0  0  0  0  0  0  0
   -0.0031    0.6037    3.7508 H   0  0  0  0  0  0  0  0  0  0  0  0
   -0.9701    0.6403    2.1208 H   0  0  0  0  0  0  0  0  0  0  0  0
    3.1370   -1.7413    4.5153 H   0  0  0  0  0  0  0  0  0  0  0  0
    1.1259   -1.7169    4.4926 H   0  0  0  0  0  0  0  0  0  0  0  0
    0.4172   -0.5328    6.5869 H   0  0  0  0  0  0  0  0  0  0  0  0
  1  2  2  0
  1  4  1  0
  1 15  1  0
  2  5  1  0
  2 16  1  0
  3  4  2  0
  3  6  1  0
  3 17  1  0
  4 10  1  0
  5  6  2  0
  5 11  1  0
  6 12  1  0
  7 12  1  0
  7 13  2  0
  7 14  1  0
  8  9  1  0
  8 10  1  0
  8 18  1  0
  8 19  1  0
  9 10  1  0
  9 20  1  0
  9 21  1  0
 10 22  1  0
 11 23  1  0
 11 24  1  0
 11 25  1  0
 12 26  1  0
 12 27  1  0
 14 28  1  0
M  END
$$$$
