
     RDKit          3D

 18 18  0  0  0  0  0  0  0  0999 V2000
    2.0071   -0.9073   -0.0975 C   0  0  0  0  0  0  0  0  0  0  0  0
    3.0637   -1.4644    0.6158 C   0  0  0  0  0  0  0  0  0  0  0  0
    0.9090   -0.3212    0.5239 C   0  0  0  0  0  0  0  0  0  0  0  0
    2.9431   -1.6255    1.9389 C   0  0  0  0  0  0  0  0  0  0  0  0
    0.7550   -0.4647    1.8456 C   0  0  0  0  0  0  0  0  0  0  0  0
    1.8640   -0.9617    2.5873 C   0  0  0  0  0  0  0  0  0  0  0  0
    0.7899   -2.7489    4.8143 C   0  0  0  0  0  0  0  0  0  0  0  0
    3.4648   -1.1354    5.1951 O   0  0  0  0  0  0  0  0  0  0  0  0
    0.6323    0.3801    4.9730 O   0  0  0  0  0  0  0  0  0  0  0  0
    1.0111   -3.6373    3.9128 F   0  0  0  0  0  0  0  0  0  0  0  0
    1.1615   -3.2516    5.9248 F   0  0  0  0  0  0  0  0  0  0  0  0
   -0.4744   -2.5776    4.8886 F   0  0  0  0  0  0  0  0  0  0  0  0
    1.6522   -1.2160    4.4516 S   0  0  0  0  0  0  0  0  0  0  0  0
    1.9028   -1.1906   -1.1763 H   0  0  0  0  0  0  0  0  0  0  0  0
    3.5798   -2.3205    0.0955 H   0  0  0  0  0  0  0  0  0  0  0  0
   -0.0525   -0.3926   -0.0595 H   0  0  0  0  0  0  0  0  0  0  0  0
    3.8790   -1.9287    2.5762 H   0  0  0  0  0  0  0  0  0  0  0  0
   -0.0604    0.1626    2.4079 H   0  0  0  0  0  0  0  0  0  0  0  0
  1  2  2  0
  1  3  1  0
  1 14  1  0
  2  4  1  0
  2 15  1  0
  3  5  2  0
  3 16  1  0
  4  6  2  0
  4 17  1  0
  5  6  1  0
  5 18  1  0
  6 13  1  0
  7 10  1  0
  7 11  1  0
  7 12  1  0
  7 13  1  0
  8 13  2  0
  9 13  2  0
M  END
$$$$
