
     RDKit          3D

 34 34  0  0  0  0  0  0  0  0999 V2000
    2.2500   -0.4553    0.0278 C   0  0  0  0  0  0  0  0  0  0  0  0
    1.7094    0.4663    0.7110 C   0  0  0  0  0  0  0  0  0  0  0  0
    2.8656   -1.7336    2.1024 C   0  0  0  0  0  0  0  0  0  0  0  0
    3.1781   -1.3831    0.6975 C   0  0  0  0  0  0  0  0  0  0  0  0
    1.3582    0.1995    2.0252 C   0  0  0  0  0  0  0  0  0  0  0  0
    2.2104   -0.7837    2.8109 C   0  0  0  0  0  0  0  0  0  0  0  0
   -2.6124    2.1005    1.1570 C   0  0  0  0  0  0  0  0  0  0  0  0
    2.6638   -1.8171    4.9338 C   0  0  0  0  0  0  0  0  0  0  0  0
    4.1384   -2.2651   -0.1347 C   0  0  0  0  0  0  0  0  0  0  0  0
   -1.4371    1.0828    1.7033 C   0  0  0  0  0  0  0  0  0  0  0  0
    3.3842   -3.4823   -0.6519 C   0  0  0  0  0  0  0  0  0  0  0  0
   -0.2342    1.9160    2.2926 C   0  0  0  0  0  0  0  0  0  0  0  0
    4.3605   -4.4773   -1.5617 N   0  0  0  0  0  0  0  0  0  0  0  0
    1.8296   -0.8710    4.0886 O   0  0  0  0  0  0  0  0  0  0  0  0
    0.7825    1.0458    2.8368 O   0  0  0  0  0  0  0  0  0  0  0  0
    2.5754   -0.1785   -0.9812 H   0  0  0  0  0  0  0  0  0  0  0  0
    0.9885    1.1593    0.1783 H   0  0  0  0  0  0  0  0  0  0  0  0
    3.5974   -2.4141    2.6683 H   0  0  0  0  0  0  0  0  0  0  0  0
   -2.9830    2.8036    2.0630 H   0  0  0  0  0  0  0  0  0  0  0  0
   -2.1628    2.7938    0.2798 H   0  0  0  0  0  0  0  0  0  0  0  0
   -3.5399    1.4577    0.7343 H   0  0  0  0  0  0  0  0  0  0  0  0
    2.3457   -1.6328    5.9348 H   0  0  0  0  0  0  0  0  0  0  0  0
    3.6794   -1.5418    4.7552 H   0  0  0  0  0  0  0  0  0  0  0  0
    2.4131   -2.7955    4.5903 H   0  0  0  0  0  0  0  0  0  0  0  0
    5.0511   -2.6401    0.5543 H   0  0  0  0  0  0  0  0  0  0  0  0
    4.5503   -1.6441   -1.0800 H   0  0  0  0  0  0  0  0  0  0  0  0
   -1.0122    0.3845    0.8397 H   0  0  0  0  0  0  0  0  0  0  0  0
   -1.8150    0.3800    2.5869 H   0  0  0  0  0  0  0  0  0  0  0  0
    2.9715   -4.0021    0.2372 H   0  0  0  0  0  0  0  0  0  0  0  0
    2.5213   -3.1002   -1.2356 H   0  0  0  0  0  0  0  0  0  0  0  0
    0.2743    2.5789    1.4814 H   0  0  0  0  0  0  0  0  0  0  0  0
   -0.5867    2.5743    3.1871 H   0  0  0  0  0  0  0  0  0  0  0  0
    3.8337   -5.3179   -1.6515 H   0  0  0  0  0  0  0  0  0  0  0  0
    5.1313   -4.6718   -0.9621 H   0  0  0  0  0  0  0  0  0  0  0  0
  1  2  2  0
  1  4  1  0
  1 16  1  0
  2  5  1  0
  2 17  1  0
  3  4  2  0
  3  6  1  0
  3 18  1  0
  4  9  1  0
  5  6  2  0
  5 15  1  0
  6 14  1  0
  7 10  1  0
  7 19  1  0
  7 20  1  0
  7 21  1  0
  8 14  1  0
  8 22  1  0
  8 23  1  0
  8 24  1  0
  9 11  1  0
  9 25  1  0
  9 26  1  0
 10 12  1  0
 10 27  1  0
 10 28  1  0
 11 13  1  0
 11 29  1  0
 11 30  1  0
 12 15  1  0
 12 31  1  0
 12 32  1  0
 13 33  1  0
 13 34  1  0
M  END
$$$$
