
     RDKit          3D

 30 31  0  0  0  0  0  0  0  0999 V2000
   -1.6825    1.0933    1.3900 C   0  0  0  0  0  0  0  0  0  0  0  0
   -0.9357    2.0998    0.8509 C   0  0  0  0  0  0  0  0  0  0  0  0
   -1.2022   -0.1512    1.3330 C   0  0  0  0  0  0  0  0  0  0  0  0
   -0.2551    1.8248   -0.2199 C   0  0  0  0  0  0  0  0  0  0  0  0
   -0.4558   -0.4458    0.3091 C   0  0  0  0  0  0  0  0  0  0  0  0
    0.2327    0.6050   -0.3665 C   0  0  0  0  0  0  0  0  0  0  0  0
    0.4719   -2.3131   -0.9110 C   0  0  0  0  0  0  0  0  0  0  0  0
    1.5531   -1.5625   -1.8158 C   0  0  0  0  0  0  0  0  0  0  0  0
    0.2376   -1.6740    0.4165 C   0  0  1  0  0  0  0  0  0  0  0  0
    1.4322   -1.4818    1.2459 C   0  0  0  0  0  0  0  0  0  0  0  0
    1.5347   -2.4923    2.3483 C   0  0  1  0  0  0  0  0  0  0  0  0
    0.5439   -2.3987    3.5088 C   0  0  0  0  0  0  0  0  0  0  0  0
    1.5163   -3.9580    1.7360 O   0  0  0  0  0  0  0  0  0  0  0  0
    0.5738   -1.3494    3.9472 F   0  0  0  0  0  0  0  0  0  0  0  0
    0.9114   -3.1228    4.3207 F   0  0  0  0  0  0  0  0  0  0  0  0
   -0.5196   -2.6692    3.2370 F   0  0  0  0  0  0  0  0  0  0  0  0
    1.0962    0.2807   -1.9294 S   0  0  0  0  0  0  0  0  0  0  0  0
   -1.9871    1.3449    2.4362 H   0  0  0  0  0  0  0  0  0  0  0  0
   -1.5077    3.0616    0.7382 H   0  0  0  0  0  0  0  0  0  0  0  0
   -1.9695   -0.9206    1.4344 H   0  0  0  0  0  0  0  0  0  0  0  0
    0.3274    2.6556   -0.7377 H   0  0  0  0  0  0  0  0  0  0  0  0
   -0.5306   -2.3192   -1.4627 H   0  0  0  0  0  0  0  0  0  0  0  0
    0.8312   -3.3798   -0.7146 H   0  0  0  0  0  0  0  0  0  0  0  0
    2.6042   -1.6983   -1.3526 H   0  0  0  0  0  0  0  0  0  0  0  0
    1.5664   -2.0270   -2.8789 H   0  0  0  0  0  0  0  0  0  0  0  0
   -0.4892   -2.3639    0.9410 H   0  0  0  0  0  0  0  0  0  0  0  0
    2.3572   -1.5815    0.6372 H   0  0  0  0  0  0  0  0  0  0  0  0
    1.4233   -0.4765    1.7382 H   0  0  0  0  0  0  0  0  0  0  0  0
    2.5143   -2.3780    2.8394 H   0  0  0  0  0  0  0  0  0  0  0  0
    1.6351   -4.7728    2.6341 H   0  0  0  0  0  0  0  0  0  0  0  0
  1  2  2  0
  1  3  1  0
  1 18  1  0
  2  4  1  0
  2 19  1  0
  3  5  2  0
  3 20  1  0
  4  6  2  0
  4 21  1  0
  5  6  1  0
  5  9  1  0
  6 17  1  0
  7  8  1  0
  7  9  1  0
  7 22  1  0
  7 23  1  0
  8 17  1  0
  8 24  1  0
  8 25  1  0
  9 10  1  0
  9 26  1  1
 10 11  1  0
 10 27  1  0
 10 28  1  0
 11 12  1  0
 11 13  1  0
 11 29  1  1
 12 14  1  0
 12 15  1  0
 12 16  1  0
 13 30  1  0
M  END
$$$$
