
     RDKit          3D

 27 28  0  0  0  0  0  0  0  0999 V2000
   -2.9690    3.2001    2.9740 C   0  0  0  0  0  0  0  0  0  0  0  0
   -2.7615    2.2410    3.9327 C   0  0  0  0  0  0  0  0  0  0  0  0
   -2.2261    3.1897    1.8217 C   0  0  0  0  0  0  0  0  0  0  0  0
   -2.2027    1.0612    3.5966 C   0  0  0  0  0  0  0  0  0  0  0  0
   -1.3175    2.2414    1.5553 C   0  0  0  0  0  0  0  0  0  0  0  0
   -1.3939    1.0131    2.3720 C   0  0  0  0  0  0  0  0  0  0  0  0
   -1.3041   -1.3669    2.2577 C   0  0  0  0  0  0  0  0  0  0  0  0
    0.3902    0.0563    1.0150 C   0  0  0  0  0  0  0  0  0  0  0  0
   -0.3702   -2.6639    2.3567 C   0  0  0  0  0  0  0  0  0  0  0  0
    1.5310   -1.0651    0.9739 C   0  0  0  0  0  0  0  0  0  0  0  0
   -0.5040   -0.0770    2.2195 N   0  0  0  0  0  0  0  0  0  0  0  0
    0.7507   -2.6806    0.9557 N   0  0  0  0  0  0  0  0  0  0  0  0
   -3.1231    4.2295    3.3910 H   0  0  0  0  0  0  0  0  0  0  0  0
   -3.6454    2.1180    4.6102 H   0  0  0  0  0  0  0  0  0  0  0  0
   -2.0082    4.2022    1.3927 H   0  0  0  0  0  0  0  0  0  0  0  0
   -1.7647    0.4399    4.4293 H   0  0  0  0  0  0  0  0  0  0  0  0
   -1.1112    2.0401    0.4695 H   0  0  0  0  0  0  0  0  0  0  0  0
   -1.9576   -1.4425    1.2979 H   0  0  0  0  0  0  0  0  0  0  0  0
   -2.0045   -1.3691    3.1858 H   0  0  0  0  0  0  0  0  0  0  0  0
    0.9195    1.0936    1.0507 H   0  0  0  0  0  0  0  0  0  0  0  0
   -0.2464   -0.0143    0.0438 H   0  0  0  0  0  0  0  0  0  0  0  0
    0.2494   -2.5843    3.3737 H   0  0  0  0  0  0  0  0  0  0  0  0
   -1.0517   -3.6438    2.3550 H   0  0  0  0  0  0  0  0  0  0  0  0
    2.1992   -0.9151   -0.0037 H   0  0  0  0  0  0  0  0  0  0  0  0
    2.1931   -0.9418    1.9594 H   0  0  0  0  0  0  0  0  0  0  0  0
    0.0540   -2.7981   -0.1374 H   0  0  0  0  0  0  0  0  0  0  0  0
    1.6390   -3.6275    1.0826 H   0  0  0  0  0  0  0  0  0  0  0  0
  1  2  2  0
  1  3  1  0
  1 13  1  0
  2  4  1  0
  2 14  1  0
  3  5  2  0
  3 15  1  0
  4  6  2  0
  4 16  1  0
  5  6  1  0
  5 17  1  0
  6 11  1  0
  7  9  1  0
  7 11  1  0
  7 18  1  0
  7 19  1  0
  8 10  1  0
  8 11  1  0
  8 20  1  0
  8 21  1  0
  9 12  1  0
  9 22  1  0
  9 23  1  0
 10 12  1  0
 10 24  1  0
 10 25  1  0
 12 26  1  0
 12 27  1  0
M  CHG  1  12   1
M  END
$$$$
