
     RDKit          3D

 56 58  0  0  0  0  0  0  0  0999 V2000
    3.3120   -2.0567   -0.5560 C   0  0  0  0  0  0  0  0  0  0  0  0
    2.2628   -1.8277    0.1343 C   0  0  0  0  0  0  0  0  0  0  0  0
   -3.2519   -0.2706   -0.5452 C   0  0  0  0  0  0  0  0  0  0  0  0
   -3.4882   -0.9737    1.9347 C   0  0  0  0  0  0  0  0  0  0  0  0
    2.0067    0.2801   -1.1724 C   0  0  0  0  0  0  0  0  0  0  0  0
   -1.9946    0.1667   -0.2442 C   0  0  0  0  0  0  0  0  0  0  0  0
    3.2753   -1.6730   -1.8261 C   0  0  0  0  0  0  0  0  0  0  0  0
   -4.1446   -0.4971    0.6333 C   0  0  0  0  0  0  0  0  0  0  0  0
   -2.3389   -0.4324    2.1798 C   0  0  0  0  0  0  0  0  0  0  0  0
    2.8464   -0.3739   -2.1304 C   0  0  0  0  0  0  0  0  0  0  0  0
    1.8188   -0.5242    0.1547 C   0  0  0  0  0  0  0  0  0  0  0  0
   -1.4048   -0.1820    1.1299 C   0  0  0  0  0  0  0  0  0  0  0  0
    1.2599    1.7066   -1.4485 C   0  0  0  0  0  0  0  0  0  0  0  0
   -1.0261    0.8388   -1.3431 C   0  0  0  0  0  0  0  0  0  0  0  0
   -5.7088   -0.4463    0.5024 C   0  0  0  0  0  0  0  0  0  0  0  0
    1.4622   -3.1866   -5.3963 C   0  0  0  0  0  0  0  0  0  0  0  0
    1.9411   -4.4044   -3.3225 C   0  0  0  0  0  0  0  0  0  0  0  0
   -2.0083    0.8232    3.9726 C   0  0  0  0  0  0  0  0  0  0  0  0
    3.7205    0.9997   -3.6087 C   0  0  0  0  0  0  0  0  0  0  0  0
    3.3905   -2.6961   -4.1594 C   0  0  0  0  0  0  0  0  0  0  0  0
    4.0367   -2.4585   -2.8240 C   0  0  1  0  0  0  0  0  0  0  0  0
    2.0647   -3.1596   -4.0733 C   0  0  0  0  0  0  0  0  0  0  0  0
    1.1214    2.1748   -2.5774 O   0  0  0  0  0  0  0  0  0  0  0  0
    0.4345    2.4149    2.2179 O   0  0  0  0  0  0  0  0  0  0  0  0
    1.1048   -1.0640    3.5143 O   0  0  0  0  0  0  0  0  0  0  0  0
    0.0931    1.7663   -0.6289 O   0  0  0  0  0  0  0  0  0  0  0  0
    5.3794   -1.7685   -3.0179 O   0  0  0  0  0  0  0  0  0  0  0  0
   -1.8100   -0.5140    3.2446 O   0  0  0  0  0  0  0  0  0  0  0  0
    2.6803   -0.0745   -3.2143 O   0  0  0  0  0  0  0  0  0  0  0  0
    0.5083    0.2050    1.7501 S   0  0  0  0  0  0  0  0  0  0  0  0
    3.6443   -3.1040   -0.4877 H   0  0  0  0  0  0  0  0  0  0  0  0
    2.1956   -2.3385    1.1880 H   0  0  0  0  0  0  0  0  0  0  0  0
   -3.7114    0.2952   -1.3918 H   0  0  0  0  0  0  0  0  0  0  0  0
   -4.1616   -1.0485    2.8579 H   0  0  0  0  0  0  0  0  0  0  0  0
   -0.4131   -0.0866   -1.9606 H   0  0  0  0  0  0  0  0  0  0  0  0
   -1.7018    1.5992   -2.1019 H   0  0  0  0  0  0  0  0  0  0  0  0
   -6.1116   -1.5330    0.3920 H   0  0  0  0  0  0  0  0  0  0  0  0
   -6.1675    0.0480    1.4514 H   0  0  0  0  0  0  0  0  0  0  0  0
   -5.9998    0.1614   -0.4469 H   0  0  0  0  0  0  0  0  0  0  0  0
    1.8275   -4.1883   -5.9745 H   0  0  0  0  0  0  0  0  0  0  0  0
    0.2566   -3.2213   -5.2713 H   0  0  0  0  0  0  0  0  0  0  0  0
    1.7795   -2.2024   -6.0307 H   0  0  0  0  0  0  0  0  0  0  0  0
    2.8457   -5.1546   -3.6227 H   0  0  0  0  0  0  0  0  0  0  0  0
    1.9897   -4.1639   -2.1358 H   0  0  0  0  0  0  0  0  0  0  0  0
    0.8743   -4.9205   -3.5805 H   0  0  0  0  0  0  0  0  0  0  0  0
   -1.2861    0.8067    4.7593 H   0  0  0  0  0  0  0  0  0  0  0  0
   -3.0141    0.7966    4.3311 H   0  0  0  0  0  0  0  0  0  0  0  0
   -1.8300    1.5921    3.2499 H   0  0  0  0  0  0  0  0  0  0  0  0
    3.2931    1.4836   -4.4587 H   0  0  0  0  0  0  0  0  0  0  0  0
    4.6071    0.4592   -3.8486 H   0  0  0  0  0  0  0  0  0  0  0  0
    3.8294    1.6473   -2.7642 H   0  0  0  0  0  0  0  0  0  0  0  0
    4.0262   -3.4639   -4.7046 H   0  0  0  0  0  0  0  0  0  0  0  0
    3.4262   -1.7181   -4.7329 H   0  0  0  0  0  0  0  0  0  0  0  0
    4.2531   -3.4562   -2.3424 H   0  0  0  0  0  0  0  0  0  0  0  0
    1.5103   -2.4173   -3.5152 H   0  0  0  0  0  0  0  0  0  0  0  0
    5.9618   -2.2503   -3.9811 H   0  0  0  0  0  0  0  0  0  0  0  0
  1  2  2  0
  1  7  1  0
  1 31  1  0
  2 11  1  0
  2 32  1  0
  3  6  2  0
  3  8  1  0
  3 33  1  0
  4  8  2  0
  4  9  1  0
  4 34  1  0
  5 10  1  0
  5 11  2  0
  5 13  1  0
  6 12  1  0
  6 14  1  0
  7 10  2  0
  7 21  1  0
  8 15  1  0
  9 12  2  0
  9 28  1  0
 10 29  1  0
 11 30  1  0
 12 30  1  0
 13 23  2  0
 13 26  1  0
 14 26  1  0
 14 35  1  0
 14 36  1  0
 15 37  1  0
 15 38  1  0
 15 39  1  0
 16 22  1  0
 16 40  1  0
 16 41  1  0
 16 42  1  0
 17 22  1  0
 17 43  1  0
 17 44  1  0
 17 45  1  0
 18 28  1  0
 18 46  1  0
 18 47  1  0
 18 48  1  0
 19 29  1  0
 19 49  1  0
 19 50  1  0
 19 51  1  0
 20 21  1  0
 20 22  1  0
 20 52  1  0
 20 53  1  0
 21 27  1  0
 21 54  1  1
 22 55  1  0
 24 30  2  0
 25 30  2  0
 27 56  1  0
M  END
$$$$
