
     RDKit          3D

 48 50  0  0  0  0  0  0  0  0999 V2000
   -4.1948    1.3810   -1.0675 C   0  0  0  0  0  0  0  0  0  0  0  0
    3.9556    2.4763    1.2312 C   0  0  0  0  0  0  0  0  0  0  0  0
   -2.9999    1.6852   -1.2970 C   0  0  0  0  0  0  0  0  0  0  0  0
    2.9902    2.5791    0.4041 C   0  0  0  0  0  0  0  0  0  0  0  0
   -3.5877    0.3965    1.2650 C   0  0  0  0  0  0  0  0  0  0  0  0
    1.9281    0.6137    1.4068 C   0  0  0  0  0  0  0  0  0  0  0  0
   -2.3317    0.8020    0.9841 C   0  0  0  0  0  0  0  0  0  0  0  0
   -4.5407    0.4373    0.0997 C   0  0  0  0  0  0  0  0  0  0  0  0
    4.1940    1.2967    1.7709 C   0  0  0  0  0  0  0  0  0  0  0  0
    3.1503    0.4570    2.1133 C   0  0  0  0  0  0  0  0  0  0  0  0
    1.8023    1.9325    0.6562 C   0  0  0  0  0  0  0  0  0  0  0  0
   -2.0588    1.6494   -0.2741 C   0  0  0  0  0  0  0  0  0  0  0  0
    1.1902   -0.6565    0.7882 C   0  0  0  0  0  0  0  0  0  0  0  0
    8.1678   -1.0760   -0.0166 C   0  0  0  0  0  0  0  0  0  0  0  0
    7.4317   -0.6003    1.3940 C   0  0  0  0  0  0  0  0  0  0  0  0
   -1.0369    0.3893    1.7342 C   0  0  0  0  0  0  0  0  0  0  0  0
   -5.7695   -0.5256    0.0257 C   0  0  0  0  0  0  0  0  0  0  0  0
    7.8725   -1.0731    2.8043 C   0  0  0  0  0  0  0  0  0  0  0  0
    2.1559   -1.0688    3.6251 C   0  0  0  0  0  0  0  0  0  0  0  0
    5.9494   -0.2735    1.2858 C   0  0  0  0  0  0  0  0  0  0  0  0
    5.5304    0.8472    2.1925 C   0  0  1  0  0  0  0  0  0  0  0  0
    1.7900   -1.6035    0.3003 O   0  0  0  0  0  0  0  0  0  0  0  0
   -0.2776   -0.7536    0.8439 O   0  0  0  0  0  0  0  0  0  0  0  0
    6.5842    2.0007    2.1237 O   0  0  0  0  0  0  0  0  0  0  0  0
    3.3581   -0.4360    2.9072 O   0  0  0  0  0  0  0  0  0  0  0  0
    0.0370    2.3034   -0.7225 S   0  0  0  0  0  0  0  0  0  0  0  0
   -4.8217    1.2485   -1.9523 H   0  0  0  0  0  0  0  0  0  0  0  0
    4.8869    2.9385    0.8763 H   0  0  0  0  0  0  0  0  0  0  0  0
   -2.7518    2.4025   -2.1510 H   0  0  0  0  0  0  0  0  0  0  0  0
    2.8682    3.5729   -0.1514 H   0  0  0  0  0  0  0  0  0  0  0  0
   -3.6236   -0.5241    1.9000 H   0  0  0  0  0  0  0  0  0  0  0  0
    7.4406   -1.1147   -1.1927 H   0  0  0  0  0  0  0  0  0  0  0  0
    9.2733   -1.9051    0.0320 H   0  0  0  0  0  0  0  0  0  0  0  0
   -0.3017    1.4059    1.8349 H   0  0  0  0  0  0  0  0  0  0  0  0
   -1.3474   -0.1503    2.8390 H   0  0  0  0  0  0  0  0  0  0  0  0
   -5.3923   -1.6033   -0.2026 H   0  0  0  0  0  0  0  0  0  0  0  0
   -6.3319   -0.5156    1.0450 H   0  0  0  0  0  0  0  0  0  0  0  0
   -6.4844   -0.1794   -0.8255 H   0  0  0  0  0  0  0  0  0  0  0  0
    7.3891   -0.4263    3.6355 H   0  0  0  0  0  0  0  0  0  0  0  0
    9.0234   -0.9703    2.9057 H   0  0  0  0  0  0  0  0  0  0  0  0
    7.5801   -2.1836    2.9689 H   0  0  0  0  0  0  0  0  0  0  0  0
    2.5637   -1.4614    4.5299 H   0  0  0  0  0  0  0  0  0  0  0  0
    1.8064   -1.8354    2.9706 H   0  0  0  0  0  0  0  0  0  0  0  0
    1.4535   -0.2799    3.7852 H   0  0  0  0  0  0  0  0  0  0  0  0
    5.3104   -1.2328    1.5130 H   0  0  0  0  0  0  0  0  0  0  0  0
    5.6996    0.0474    0.1827 H   0  0  0  0  0  0  0  0  0  0  0  0
    5.4357    0.5055    3.2624 H   0  0  0  0  0  0  0  0  0  0  0  0
    7.7000    1.4768    2.0196 H   0  0  0  0  0  0  0  0  0  0  0  0
  1  3  2  0
  1  8  1  0
  1 27  1  0
  2  4  1  0
  2  9  2  0
  2 28  1  0
  3 12  1  0
  3 29  1  0
  4 11  2  0
  4 30  1  0
  5  7  1  0
  5  8  2  0
  5 31  1  0
  6 10  2  0
  6 11  1  0
  6 13  1  0
  7 12  2  0
  7 16  1  0
  8 17  1  0
  9 10  1  0
  9 21  1  0
 10 25  1  0
 11 26  1  0
 12 26  1  0
 13 22  2  0
 13 23  1  0
 14 15  2  3
 14 32  1  0
 14 33  1  0
 15 18  1  0
 15 20  1  0
 16 23  1  0
 16 34  1  0
 16 35  1  0
 17 36  1  0
 17 37  1  0
 17 38  1  0
 18 39  1  0
 18 40  1  0
 18 41  1  0
 19 25  1  0
 19 42  1  0
 19 43  1  0
 19 44  1  0
 20 21  1  0
 20 45  1  0
 20 46  1  0
 21 24  1  0
 21 47  1  1
 24 48  1  0
M  END
$$$$
