
     RDKit          3D

 23 24  0  0  0  0  0  0  0  0999 V2000
    2.1565   -0.6887    0.0090 C   0  0  0  0  0  0  0  0  0  0  0  0
    0.9401   -0.6135    0.6173 C   0  0  0  0  0  0  0  0  0  0  0  0
    3.1963   -1.2021    0.6426 C   0  0  0  0  0  0  0  0  0  0  0  0
    0.8674   -0.4827    1.9529 C   0  0  0  0  0  0  0  0  0  0  0  0
    3.1730   -1.2106    1.9945 C   0  0  0  0  0  0  0  0  0  0  0  0
    1.8785   -1.0192    2.6282 C   0  0  0  0  0  0  0  0  0  0  0  0
    5.6500   -2.8962    1.3466 C   0  0  0  0  0  0  0  0  0  0  0  0
    4.0256   -3.4259    2.7176 C   0  0  0  0  0  0  0  0  0  0  0  0
    4.2399   -1.8986    2.7336 C   0  0  1  0  0  0  0  0  0  0  0  0
    5.5296   -1.8556    2.1262 N   0  0  0  0  0  0  0  0  0  0  0  0
    1.5743   -1.5984    4.0839 N   0  0  0  0  0  0  0  0  0  0  0  0
    2.2421   -2.0212    4.5665 O   0  0  0  0  0  0  0  0  0  0  0  0
    6.7915   -3.0700    0.9162 O   0  0  0  0  0  0  0  0  0  0  0  0
    0.6466   -1.3916    4.4531 O   0  0  0  0  0  0  0  0  0  0  0  0
    5.2995   -3.8635    2.1019 O   0  0  0  0  0  0  0  0  0  0  0  0
    2.0661   -1.0945   -1.0325 H   0  0  0  0  0  0  0  0  0  0  0  0
    0.2763    0.1281    0.1030 H   0  0  0  0  0  0  0  0  0  0  0  0
    4.1589   -0.8106    0.2968 H   0  0  0  0  0  0  0  0  0  0  0  0
   -0.1264   -0.7425    2.4127 H   0  0  0  0  0  0  0  0  0  0  0  0
    3.9830   -3.8500    3.7190 H   0  0  0  0  0  0  0  0  0  0  0  0
    3.2226   -3.7148    2.0396 H   0  0  0  0  0  0  0  0  0  0  0  0
    4.3150   -1.4617    3.7665 H   0  0  0  0  0  0  0  0  0  0  0  0
    5.8206   -1.0134    1.7506 H   0  0  0  0  0  0  0  0  0  0  0  0
  1  2  2  0
  1  3  1  0
  1 16  1  0
  2  4  1  0
  2 17  1  0
  3  5  2  0
  3 18  1  0
  4  6  2  0
  4 19  1  0
  5  6  1  0
  5  9  1  0
  6 11  1  0
  7 10  1  0
  7 13  2  0
  7 15  1  0
  8  9  1  0
  8 15  1  0
  8 20  1  0
  8 21  1  0
  9 10  1  0
  9 22  1  1
 10 23  1  0
 11 12  1  0
 11 14  2  0
M  CHG  2  11   1  12  -1
M  END
$$$$
