
     RDKit          3D

 38 40  0  0  0  0  0  0  0  0999 V2000
    0.0472   -4.3065   -3.1730 C   0  0  0  0  0  0  0  0  0  0  0  0
    0.8940    0.4275   -1.3507 C   0  0  0  0  0  0  0  0  0  0  0  0
   -0.5802    0.6912   -1.2446 C   0  0  0  0  0  0  0  0  0  0  0  0
   -1.2553   -2.6102   -4.1600 C   0  0  0  0  0  0  0  0  0  0  0  0
    0.2851   -1.8451   -4.3033 C   0  0  0  0  0  0  0  0  0  0  0  0
    0.4327    0.6999   -3.3893 C   0  0  0  0  0  0  0  0  0  0  0  0
    1.7963    0.7513   -0.1321 C   0  0  0  0  0  0  0  0  0  0  0  0
   -1.4536   -0.3370   -0.3175 C   0  0  0  0  0  0  0  0  0  0  0  0
    0.3088   -0.6243    1.1943 C   0  0  0  0  0  0  0  0  0  0  0  0
   -1.1058   -0.2857    1.0642 C   0  0  0  0  0  0  0  0  0  0  0  0
   -2.6838   -1.8822   -4.8390 C   0  0  0  0  0  0  0  0  0  0  0  0
   -1.7638   -1.3238    1.6455 C   0  0  0  0  0  0  0  0  0  0  0  0
   -1.4054    0.9066    1.6209 C   0  0  0  0  0  0  0  0  0  0  0  0
    0.4423   -0.2975   -4.7740 C   0  0  0  0  0  0  0  0  0  0  0  0
   -1.2119   -3.8956   -3.6529 N   0  0  0  0  0  0  0  0  0  0  0  0
    1.3357    0.3723   -2.5070 N   0  0  0  0  0  0  0  0  0  0  0  0
   -0.8560    0.4156   -2.6091 N   0  0  0  0  0  0  0  0  0  0  0  0
    1.2797    0.5742    1.0106 N   0  0  0  0  0  0  0  0  0  0  0  0
    2.7316    1.4028   -0.1672 O   0  0  0  0  0  0  0  0  0  0  0  0
    1.7234   -2.9488   -3.3493 S   0  0  0  0  0  0  0  0  0  0  0  0
    0.1523   -5.1891   -2.7798 H   0  0  0  0  0  0  0  0  0  0  0  0
   -2.6226   -0.0329   -0.4464 H   0  0  0  0  0  0  0  0  0  0  0  0
   -1.2441   -1.4586   -0.7416 H   0  0  0  0  0  0  0  0  0  0  0  0
    0.4553   -0.9183    2.2845 H   0  0  0  0  0  0  0  0  0  0  0  0
    0.5986   -1.4700    0.4888 H   0  0  0  0  0  0  0  0  0  0  0  0
   -2.8557   -2.3372   -5.8717 H   0  0  0  0  0  0  0  0  0  0  0  0
   -3.5699   -2.1227   -4.1607 H   0  0  0  0  0  0  0  0  0  0  0  0
   -2.5311   -0.7560   -4.9247 H   0  0  0  0  0  0  0  0  0  0  0  0
   -1.6877   -1.2200    2.8144 H   0  0  0  0  0  0  0  0  0  0  0  0
   -1.2946   -2.3505    1.3117 H   0  0  0  0  0  0  0  0  0  0  0  0
   -2.8983   -1.2977    1.3368 H   0  0  0  0  0  0  0  0  0  0  0  0
   -0.8619    0.9943    2.6591 H   0  0  0  0  0  0  0  0  0  0  0  0
   -2.5670    0.9743    1.7858 H   0  0  0  0  0  0  0  0  0  0  0  0
   -1.0608    1.7870    0.9263 H   0  0  0  0  0  0  0  0  0  0  0  0
    1.5437   -0.1519   -5.2672 H   0  0  0  0  0  0  0  0  0  0  0  0
   -0.4354    0.0518   -5.5356 H   0  0  0  0  0  0  0  0  0  0  0  0
   -1.7072    0.8493   -2.9869 H   0  0  0  0  0  0  0  0  0  0  0  0
    1.9500    0.6534    1.6791 H   0  0  0  0  0  0  0  0  0  0  0  0
  1 15  2  0
  1 20  1  0
  1 21  1  0
  2  3  2  0
  2  7  1  0
  2 16  1  0
  3  8  1  0
  3 17  1  0
  4  5  2  0
  4 11  1  0
  4 15  1  0
  5 14  1  0
  5 20  1  0
  6 14  1  0
  6 16  2  0
  6 17  1  0
  7 18  1  0
  7 19  2  0
  8 10  1  0
  8 22  1  0
  8 23  1  0
  9 10  1  0
  9 18  1  0
  9 24  1  0
  9 25  1  0
 10 12  1  0
 10 13  1  0
 11 26  1  0
 11 27  1  0
 11 28  1  0
 12 29  1  0
 12 30  1  0
 12 31  1  0
 13 32  1  0
 13 33  1  0
 13 34  1  0
 14 35  1  0
 14 36  1  0
 17 37  1  0
 18 38  1  0
M  END
$$$$
