
     RDKit          3D

 45 47  0  0  0  0  0  0  0  0999 V2000
    1.3338    3.6823   -0.4447 C   0  0  0  0  0  0  0  0  0  0  0  0
    2.5905    3.0946    1.5820 C   0  0  0  0  0  0  0  0  0  0  0  0
    1.9217    4.8411   -0.4411 C   0  0  0  0  0  0  0  0  0  0  0  0
    3.1508    4.2667    1.5439 C   0  0  0  0  0  0  0  0  0  0  0  0
   -0.6656    0.2725   -4.4444 C   0  0  0  0  0  0  0  0  0  0  0  0
   -2.2695    0.8645   -2.8867 C   0  0  0  0  0  0  0  0  0  0  0  0
    1.9257    2.6725    0.4115 C   0  0  0  0  0  0  0  0  0  0  0  0
    2.5953    5.2460    0.7145 C   0  0  0  0  0  0  0  0  0  0  0  0
   -0.5169    0.1670    2.2624 C   0  0  0  0  0  0  0  0  0  0  0  0
    1.4575   -1.3818    1.8227 C   0  0  0  0  0  0  0  0  0  0  0  0
    0.1151   -2.2746    1.6023 C   0  0  0  0  0  0  0  0  0  0  0  0
    0.1009   -0.7051    1.2656 C   0  0  0  0  0  0  0  0  0  0  0  0
   -2.3014    3.3326    1.7029 C   0  0  0  0  0  0  0  0  0  0  0  0
   -1.2229   -0.6105   -0.7979 C   0  0  0  0  0  0  0  0  0  0  0  0
   -1.9154    1.9938    2.6554 C   0  0  0  0  0  0  0  0  0  0  0  0
    0.5653    1.0024   -0.4609 C   0  0  0  0  0  0  0  0  0  0  0  0
    0.1215   -0.3895   -0.1879 C   0  0  1  0  0  0  0  0  0  0  0  0
   -1.8660    1.2196   -4.2788 N   0  0  0  0  0  0  0  0  0  0  0  0
   -0.3762   -0.5993   -3.1365 N   0  0  0  0  0  0  0  0  0  0  0  0
   -1.3066   -0.2357   -2.2665 N   0  0  0  0  0  0  0  0  0  0  0  0
   -0.5820   -0.1231    3.4457 O   0  0  0  0  0  0  0  0  0  0  0  0
    0.9683   -1.2637   -0.9661 O   0  0  0  0  0  0  0  0  0  0  0  0
    1.5160    1.4099    0.4832 O   0  0  0  0  0  0  0  0  0  0  0  0
   -1.3226    0.9720    1.7362 O   0  0  0  0  0  0  0  0  0  0  0  0
    3.3372    6.7998    0.7031 F   0  0  0  0  0  0  0  0  0  0  0  0
    0.9731    3.2908   -1.4484 H   0  0  0  0  0  0  0  0  0  0  0  0
    3.1466    2.2520    2.1115 H   0  0  0  0  0  0  0  0  0  0  0  0
    1.4966    5.6914   -1.0791 H   0  0  0  0  0  0  0  0  0  0  0  0
    3.6863    4.6645    2.4742 H   0  0  0  0  0  0  0  0  0  0  0  0
   -0.2695   -0.0991   -5.4912 H   0  0  0  0  0  0  0  0  0  0  0  0
   -2.8864    1.5691   -2.1880 H   0  0  0  0  0  0  0  0  0  0  0  0
    1.7555   -1.0237    2.9995 H   0  0  0  0  0  0  0  0  0  0  0  0
    2.3889   -1.4949    0.9746 H   0  0  0  0  0  0  0  0  0  0  0  0
    0.0518   -3.0348    0.5933 H   0  0  0  0  0  0  0  0  0  0  0  0
   -0.5390   -2.5791    2.6425 H   0  0  0  0  0  0  0  0  0  0  0  0
   -1.2847    3.7363    1.1959 H   0  0  0  0  0  0  0  0  0  0  0  0
   -3.0722    2.9770    0.8477 H   0  0  0  0  0  0  0  0  0  0  0  0
   -2.7966    4.1786    2.4042 H   0  0  0  0  0  0  0  0  0  0  0  0
   -1.4920   -1.7703   -0.7002 H   0  0  0  0  0  0  0  0  0  0  0  0
   -2.0536    0.0132   -0.2167 H   0  0  0  0  0  0  0  0  0  0  0  0
   -2.8449    1.4302    3.1549 H   0  0  0  0  0  0  0  0  0  0  0  0
   -1.0886    2.1888    3.5005 H   0  0  0  0  0  0  0  0  0  0  0  0
    1.1002    1.0390   -1.4865 H   0  0  0  0  0  0  0  0  0  0  0  0
   -0.3336    1.7282   -0.4092 H   0  0  0  0  0  0  0  0  0  0  0  0
    0.4921   -1.0785   -2.3415 H   0  0  0  0  0  0  0  0  0  0  0  0
  1  3  2  0
  1  7  1  0
  1 26  1  0
  2  4  1  0
  2  7  2  0
  2 27  1  0
  3  8  1  0
  3 28  1  0
  4  8  2  0
  4 29  1  0
  5 18  1  0
  5 19  2  0
  5 30  1  0
  6 18  2  0
  6 20  1  0
  6 31  1  0
  7 23  1  0
  8 25  1  0
  9 12  1  0
  9 21  2  0
  9 24  1  0
 10 11  1  0
 10 12  1  0
 10 32  1  0
 10 33  1  0
 11 12  1  0
 11 34  1  0
 11 35  1  0
 12 17  1  0
 13 15  1  0
 13 36  1  0
 13 37  1  0
 13 38  1  0
 14 17  1  0
 14 20  1  0
 14 39  1  0
 14 40  1  0
 15 24  1  0
 15 41  1  0
 15 42  1  0
 16 17  1  0
 16 23  1  0
 16 43  1  0
 16 44  1  0
 17 22  1  6
 19 20  1  0
 22 45  1  0
M  END
$$$$
