
     RDKit          3D

 22 23  0  0  0  0  0  0  0  0999 V2000
    0.4291   -0.7876    0.9025 C   0  0  0  0  0  0  0  0  0  0  0  0
    1.3657   -0.0572    1.5408 C   0  0  0  0  0  0  0  0  0  0  0  0
    0.6436   -3.3271    6.7768 C   0  0  0  0  0  0  0  0  0  0  0  0
   -0.5630   -1.4097    1.5734 C   0  0  0  0  0  0  0  0  0  0  0  0
    2.1893   -3.1570    6.3262 C   0  0  0  0  0  0  0  0  0  0  0  0
   -0.1455   -2.3933    5.7410 C   0  0  0  0  0  0  0  0  0  0  0  0
    1.7561   -0.4795    2.7405 C   0  0  0  0  0  0  0  0  0  0  0  0
    0.6858   -1.3760    3.5408 C   0  0  0  0  0  0  0  0  0  0  0  0
    3.6489    0.9966    2.8649 C   0  0  0  0  0  0  0  0  0  0  0  0
   -0.5206   -1.7831    2.8320 N   0  0  0  0  0  0  0  0  0  0  0  0
    2.2242   -2.1409    5.2696 N   0  0  0  0  0  0  0  0  0  0  0  0
    0.9282   -1.7745    4.9122 N   0  0  0  0  0  0  0  0  0  0  0  0
    2.6837    0.0281    3.5295 O   0  0  0  0  0  0  0  0  0  0  0  0
    0.0756   -0.2947   -0.0570 H   0  0  0  0  0  0  0  0  0  0  0  0
    2.1976    0.3886    0.9182 H   0  0  0  0  0  0  0  0  0  0  0  0
    0.2079   -4.3286    7.1457 H   0  0  0  0  0  0  0  0  0  0  0  0
   -1.3427   -1.8527    1.0137 H   0  0  0  0  0  0  0  0  0  0  0  0
    3.0181   -3.1122    7.0187 H   0  0  0  0  0  0  0  0  0  0  0  0
   -0.9881   -2.7445    5.1560 H   0  0  0  0  0  0  0  0  0  0  0  0
    4.3262    1.2723    3.6411 H   0  0  0  0  0  0  0  0  0  0  0  0
    3.0469    1.8093    2.5247 H   0  0  0  0  0  0  0  0  0  0  0  0
    4.1123    0.4409    2.0807 H   0  0  0  0  0  0  0  0  0  0  0  0
  1  2  2  0
  1  4  1  0
  1 14  1  0
  2  7  1  0
  2 15  1  0
  3  5  1  0
  3  6  2  0
  3 16  1  0
  4 10  2  0
  4 17  1  0
  5 11  2  0
  5 18  1  0
  6 12  1  0
  6 19  1  0
  7  8  2  0
  7 13  1  0
  8 10  1  0
  8 12  1  0
  9 13  1  0
  9 20  1  0
  9 21  1  0
  9 22  1  0
 11 12  1  0
M  END
$$$$
