
     RDKit          3D

 19 19  0  0  0  0  0  0  0  0999 V2000
   -5.2680    1.4093   -3.9035 C   0  0  0  0  0  0  0  0  0  0  0  0
   -4.0889    1.7469   -2.7549 C   0  0  0  0  0  0  0  0  0  0  0  0
   -4.7755    0.0900   -4.8467 C   0  0  0  0  0  0  0  0  0  0  0  0
   -3.0949    0.5607   -2.5747 C   0  0  0  0  0  0  0  0  0  0  0  0
   -1.7987   -0.6146   -1.0248 C   0  0  0  0  0  0  0  0  0  0  0  0
   -0.4079   -0.5703   -0.0325 C   0  0  0  0  0  0  0  0  0  0  0  0
   -1.4422    1.8340   -1.4566 C   0  0  0  0  0  0  0  0  0  0  0  0
   -2.0942    0.5587   -1.7653 N   0  0  0  0  0  0  0  0  0  0  0  0
   -2.3940   -1.7153   -1.2846 O   0  0  0  0  0  0  0  0  0  0  0  0
   -3.0789   -0.8941   -4.1016 S   0  0  0  0  0  0  0  0  0  0  0  0
   -5.9573    2.2200   -4.3346 H   0  0  0  0  0  0  0  0  0  0  0  0
   -4.2032    2.5401   -1.9092 H   0  0  0  0  0  0  0  0  0  0  0  0
   -5.2790   -0.2912   -5.5593 H   0  0  0  0  0  0  0  0  0  0  0  0
   -0.2993    0.4479    0.4824 H   0  0  0  0  0  0  0  0  0  0  0  0
    0.5039   -0.7599   -0.7023 H   0  0  0  0  0  0  0  0  0  0  0  0
   -0.4752   -1.4186    0.7372 H   0  0  0  0  0  0  0  0  0  0  0  0
   -1.8061    2.1202   -0.4246 H   0  0  0  0  0  0  0  0  0  0  0  0
   -1.7545    2.5760   -2.2511 H   0  0  0  0  0  0  0  0  0  0  0  0
   -0.3307    1.6291   -1.4645 H   0  0  0  0  0  0  0  0  0  0  0  0
  1  2  1  0
  1  3  2  0
  1 11  1  0
  2  4  2  0
  2 12  1  0
  3 10  1  0
  3 13  1  0
  4  8  1  0
  4 10  1  0
  5  6  1  0
  5  8  1  0
  5  9  2  0
  6 14  1  0
  6 15  1  0
  6 16  1  0
  7  8  1  0
  7 17  1  0
  7 18  1  0
  7 19  1  0
M  END
$$$$
