
     RDKit          3D

 39 40  0  0  0  0  0  0  0  0999 V2000
    4.0519   -4.9384   -0.1903 C   0  0  0  0  0  0  0  0  0  0  0  0
    5.5284   -3.9571    1.4709 C   0  0  0  0  0  0  0  0  0  0  0  0
    1.7609   -1.8485    0.1131 C   0  0  0  0  0  0  0  0  0  0  0  0
    3.3013   -0.7301    1.6280 C   0  0  0  0  0  0  0  0  0  0  0  0
    4.2145   -6.1994    0.3900 C   0  0  0  0  0  0  0  0  0  0  0  0
    5.7143   -5.1999    2.0758 C   0  0  0  0  0  0  0  0  0  0  0  0
    0.6675   -1.3539    0.8231 C   0  0  0  0  0  0  0  0  0  0  0  0
    2.2272   -0.2137    2.3583 C   0  0  0  0  0  0  0  0  0  0  0  0
    5.0419   -6.3066    1.5232 C   0  0  0  0  0  0  0  0  0  0  0  0
    0.9231   -0.5437    1.9460 C   0  0  0  0  0  0  0  0  0  0  0  0
    4.6985   -3.8313    0.3551 C   0  0  0  0  0  0  0  0  0  0  0  0
    3.0606   -1.5432    0.5231 C   0  0  0  0  0  0  0  0  0  0  0  0
    3.5319   -7.4197   -0.1831 C   0  0  0  0  0  0  0  0  0  0  0  0
    6.6051   -5.3819    3.2783 C   0  0  0  0  0  0  0  0  0  0  0  0
   -0.7534   -1.6560    0.4199 C   0  0  0  0  0  0  0  0  0  0  0  0
    2.4527    0.6838    3.5527 C   0  0  0  0  0  0  0  0  0  0  0  0
    4.0137   -2.4318   -1.7762 O   0  0  0  0  0  0  0  0  0  0  0  0
    5.6307   -1.3931   -0.0656 O   0  0  0  0  0  0  0  0  0  0  0  0
    5.2493   -7.5110    2.1506 O   0  0  0  0  0  0  0  0  0  0  0  0
   -0.1824   -0.0792    2.6165 O   0  0  0  0  0  0  0  0  0  0  0  0
    4.4522   -2.2170   -0.3865 S   0  0  0  0  0  0  0  0  0  0  0  0
    3.4402   -4.8177   -1.0795 H   0  0  0  0  0  0  0  0  0  0  0  0
    6.0462   -3.0826    1.8536 H   0  0  0  0  0  0  0  0  0  0  0  0
    1.6053   -2.4568   -0.7731 H   0  0  0  0  0  0  0  0  0  0  0  0
    4.3233   -0.4839    1.9007 H   0  0  0  0  0  0  0  0  0  0  0  0
    4.2528   -8.1943   -0.4763 H   0  0  0  0  0  0  0  0  0  0  0  0
    2.8257   -7.8673    0.5293 H   0  0  0  0  0  0  0  0  0  0  0  0
    2.9615   -7.1603   -1.0775 H   0  0  0  0  0  0  0  0  0  0  0  0
    6.0275   -5.7163    4.1472 H   0  0  0  0  0  0  0  0  0  0  0  0
    7.3663   -6.1462    3.0929 H   0  0  0  0  0  0  0  0  0  0  0  0
    7.1059   -4.4454    3.5352 H   0  0  0  0  0  0  0  0  0  0  0  0
   -1.2688   -2.2277    1.1996 H   0  0  0  0  0  0  0  0  0  0  0  0
   -1.3263   -0.7348    0.2739 H   0  0  0  0  0  0  0  0  0  0  0  0
   -0.7792   -2.2339   -0.5071 H   0  0  0  0  0  0  0  0  0  0  0  0
    1.9778    1.6654    3.4237 H   0  0  0  0  0  0  0  0  0  0  0  0
    2.0654    0.2396    4.4796 H   0  0  0  0  0  0  0  0  0  0  0  0
    3.5190    0.8633    3.7060 H   0  0  0  0  0  0  0  0  0  0  0  0
    4.7327   -8.2020    1.7073 H   0  0  0  0  0  0  0  0  0  0  0  0
    0.0985    0.4518    3.3781 H   0  0  0  0  0  0  0  0  0  0  0  0
  1  5  2  0
  1 11  1  0
  1 22  1  0
  2  6  1  0
  2 11  2  0
  2 23  1  0
  3  7  2  0
  3 12  1  0
  3 24  1  0
  4  8  1  0
  4 12  2  0
  4 25  1  0
  5  9  1  0
  5 13  1  0
  6  9  2  0
  6 14  1  0
  7 10  1  0
  7 15  1  0
  8 10  2  0
  8 16  1  0
  9 19  1  0
 10 20  1  0
 11 21  1  0
 12 21  1  0
 13 26  1  0
 13 27  1  0
 13 28  1  0
 14 29  1  0
 14 30  1  0
 14 31  1  0
 15 32  1  0
 15 33  1  0
 15 34  1  0
 16 35  1  0
 16 36  1  0
 16 37  1  0
 17 21  2  0
 18 21  2  0
 19 38  1  0
 20 39  1  0
M  END
$$$$
