
     RDKit          3D

 56 59  0  0  0  0  0  0  0  0999 V2000
    5.1908   -6.0499    5.8392 C   0  0  0  0  0  0  0  0  0  0  0  0
   -0.2007   -9.3993    2.6079 C   0  0  0  0  0  0  0  0  0  0  0  0
    5.1548   -4.9221    5.0094 C   0  0  0  0  0  0  0  0  0  0  0  0
    4.0179   -6.7675    6.0920 C   0  0  0  0  0  0  0  0  0  0  0  0
   -0.8710   -8.1975    2.3518 C   0  0  0  0  0  0  0  0  0  0  0  0
    1.1968   -9.4171    2.6615 C   0  0  0  0  0  0  0  0  0  0  0  0
    1.0297   -1.9897    0.0354 C   0  0  0  0  0  0  0  0  0  0  0  0
   -0.2720   -1.4189    1.9535 C   0  0  0  0  0  0  0  0  0  0  0  0
    3.9424   -4.5185    4.4454 C   0  0  0  0  0  0  0  0  0  0  0  0
    2.8095   -6.3573    5.5177 C   0  0  0  0  0  0  0  0  0  0  0  0
   -0.1390   -7.0256    2.1436 C   0  0  0  0  0  0  0  0  0  0  0  0
    1.9195   -8.2368    2.4585 C   0  0  0  0  0  0  0  0  0  0  0  0
    1.4960   -3.1399    0.6725 C   0  0  0  0  0  0  0  0  0  0  0  0
    0.1772   -2.5661    2.6076 C   0  0  0  0  0  0  0  0  0  0  0  0
    0.1401   -1.1016    0.6538 C   0  0  0  0  0  0  0  0  0  0  0  0
    2.7588   -5.2261    4.6969 C   0  0  0  0  0  0  0  0  0  0  0  0
    1.2615   -7.0315    2.1930 C   0  0  0  0  0  0  0  0  0  0  0  0
    1.0772   -3.4588    1.9846 C   0  0  0  0  0  0  0  0  0  0  0  0
   -2.7953   -0.7674   -0.0816 C   0  0  0  0  0  0  0  0  0  0  0  0
    0.1025    2.2375   -0.3856 C   0  0  0  0  0  0  0  0  0  0  0  0
    0.6463    0.9020   -0.9599 C   0  0  0  0  0  0  0  0  0  0  0  0
   -0.5745    1.4338    0.7572 C   0  0  0  0  0  0  0  0  0  0  0  0
   -0.3776    0.1220   -0.0705 C   0  0  0  0  0  0  0  0  0  0  0  0
    1.4466   -4.7614    4.0872 C   0  0  0  0  0  0  0  0  0  0  0  0
    2.0500   -5.7602    1.9179 C   0  0  0  0  0  0  0  0  0  0  0  0
   -1.6190   -0.2536   -0.9081 C   0  0  0  0  0  0  0  0  0  0  0  0
    1.5458   -4.5998    2.6405 N   0  0  0  0  0  0  0  0  0  0  0  0
   -3.1755   -0.2646    0.9510 O   0  0  0  0  0  0  0  0  0  0  0  0
   -3.4599   -1.8470   -0.5894 O   0  0  0  0  0  0  0  0  0  0  0  0
    6.1311   -6.3689    6.2816 H   0  0  0  0  0  0  0  0  0  0  0  0
   -0.7650  -10.3140    2.7703 H   0  0  0  0  0  0  0  0  0  0  0  0
    6.0651   -4.3629    4.8068 H   0  0  0  0  0  0  0  0  0  0  0  0
    4.0438   -7.6502    6.7264 H   0  0  0  0  0  0  0  0  0  0  0  0
   -1.9575   -8.1752    2.3141 H   0  0  0  0  0  0  0  0  0  0  0  0
    1.7233  -10.3453    2.8702 H   0  0  0  0  0  0  0  0  0  0  0  0
    1.3918   -1.7791   -0.9690 H   0  0  0  0  0  0  0  0  0  0  0  0
   -0.9813   -0.7737    2.4639 H   0  0  0  0  0  0  0  0  0  0  0  0
    3.9081   -3.6526    3.7880 H   0  0  0  0  0  0  0  0  0  0  0  0
    1.9032   -6.9327    5.6897 H   0  0  0  0  0  0  0  0  0  0  0  0
   -0.6558   -6.0870    1.9557 H   0  0  0  0  0  0  0  0  0  0  0  0
    3.0045   -8.2477    2.5311 H   0  0  0  0  0  0  0  0  0  0  0  0
    2.2193   -3.7588    0.1537 H   0  0  0  0  0  0  0  0  0  0  0  0
   -0.2094   -2.7690    3.5998 H   0  0  0  0  0  0  0  0  0  0  0  0
   -0.6238    2.7171   -1.0491 H   0  0  0  0  0  0  0  0  0  0  0  0
    0.8467    2.9825   -0.0936 H   0  0  0  0  0  0  0  0  0  0  0  0
    0.5845    0.7525   -2.0433 H   0  0  0  0  0  0  0  0  0  0  0  0
    1.6736    0.7091   -0.6389 H   0  0  0  0  0  0  0  0  0  0  0  0
    0.0419    1.4162    1.6600 H   0  0  0  0  0  0  0  0  0  0  0  0
   -1.5967    1.6925    1.0325 H   0  0  0  0  0  0  0  0  0  0  0  0
    0.6566   -5.4744    4.3536 H   0  0  0  0  0  0  0  0  0  0  0  0
    1.1796   -3.8032    4.5314 H   0  0  0  0  0  0  0  0  0  0  0  0
    3.1057   -5.9288    2.1624 H   0  0  0  0  0  0  0  0  0  0  0  0
    1.9988   -5.5676    0.8459 H   0  0  0  0  0  0  0  0  0  0  0  0
   -1.9826    0.6197   -1.4655 H   0  0  0  0  0  0  0  0  0  0  0  0
   -1.3157   -1.0021   -1.6499 H   0  0  0  0  0  0  0  0  0  0  0  0
   -3.0119   -2.1585   -1.3930 H   0  0  0  0  0  0  0  0  0  0  0  0
  1  3  2  0
  1  4  1  0
  1 30  1  0
  2  5  2  0
  2  6  1  0
  2 31  1  0
  3  9  1  0
  3 32  1  0
  4 10  2  0
  4 33  1  0
  5 11  1  0
  5 34  1  0
  6 12  2  0
  6 35  1  0
  7 13  2  0
  7 15  1  0
  7 36  1  0
  8 14  1  0
  8 15  2  0
  8 37  1  0
  9 16  2  0
  9 38  1  0
 10 16  1  0
 10 39  1  0
 11 17  2  0
 11 40  1  0
 12 17  1  0
 12 41  1  0
 13 18  1  0
 13 42  1  0
 14 18  2  0
 14 43  1  0
 15 23  1  0
 16 24  1  0
 17 25  1  0
 18 27  1  0
 19 26  1  0
 19 28  2  0
 19 29  1  0
 20 21  1  0
 20 22  1  0
 20 44  1  0
 20 45  1  0
 21 23  1  0
 21 46  1  0
 21 47  1  0
 22 23  1  0
 22 48  1  0
 22 49  1  0
 23 26  1  0
 24 27  1  0
 24 50  1  0
 24 51  1  0
 25 27  1  0
 25 52  1  0
 25 53  1  0
 26 54  1  0
 26 55  1  0
 29 56  1  0
M  END
$$$$
