
     RDKit          3D

 29 30  0  0  0  0  0  0  0  0999 V2000
    7.4464   -6.0251   -1.1162 C   0  0  0  0  0  0  0  0  0  0  0  0
    6.5550   -6.5000   -0.1541 C   0  0  0  0  0  0  0  0  0  0  0  0
    7.3092   -4.7298   -1.6151 C   0  0  0  0  0  0  0  0  0  0  0  0
    2.1739   -0.6242   -0.0035 C   0  0  0  0  0  0  0  0  0  0  0  0
    5.5264   -5.6796    0.3090 C   0  0  0  0  0  0  0  0  0  0  0  0
    6.2806   -3.9093   -1.1520 C   0  0  0  0  0  0  0  0  0  0  0  0
    1.0950   -0.0500    0.6687 C   0  0  0  0  0  0  0  0  0  0  0  0
    2.5893   -2.0632    1.8921 C   0  0  0  0  0  0  0  0  0  0  0  0
    2.9210   -1.6309    0.6081 C   0  0  0  0  0  0  0  0  0  0  0  0
    1.5105   -1.4890    2.5645 C   0  0  0  0  0  0  0  0  0  0  0  0
    5.3891   -4.3842   -0.1899 C   0  0  0  0  0  0  0  0  0  0  0  0
    0.7633   -0.4824    1.9527 C   0  0  0  0  0  0  0  0  0  0  0  0
    4.0436   -2.2316   -0.0948 C   0  0  0  0  0  0  0  0  0  0  0  0
    1.1931   -1.9831    3.9392 C   0  0  0  0  0  0  0  0  0  0  0  0
    4.3437   -3.5502    0.2806 N   0  0  0  0  0  0  0  0  0  0  0  0
    4.6988   -1.6001   -0.9355 O   0  0  0  0  0  0  0  0  0  0  0  0
   -0.7120    0.3283    2.8263 Br  0  0  0  0  0  0  0  0  0  0  0  0
    8.2468   -6.6645   -1.4771 H   0  0  0  0  0  0  0  0  0  0  0  0
    6.6615   -7.5091    0.2334 H   0  0  0  0  0  0  0  0  0  0  0  0
    8.0025   -4.3600   -2.3647 H   0  0  0  0  0  0  0  0  0  0  0  0
    2.4238   -0.2806   -1.0041 H   0  0  0  0  0  0  0  0  0  0  0  0
    4.8375   -6.0605    1.0589 H   0  0  0  0  0  0  0  0  0  0  0  0
    6.1834   -2.9017   -1.5482 H   0  0  0  0  0  0  0  0  0  0  0  0
    0.5245    0.7332    0.1760 H   0  0  0  0  0  0  0  0  0  0  0  0
    3.1717   -2.8486    2.3691 H   0  0  0  0  0  0  0  0  0  0  0  0
    1.7398   -1.3982    4.6872 H   0  0  0  0  0  0  0  0  0  0  0  0
    0.1197   -1.9050    4.1489 H   0  0  0  0  0  0  0  0  0  0  0  0
    1.4656   -3.0393    4.0519 H   0  0  0  0  0  0  0  0  0  0  0  0
    3.7315   -3.9609    0.9812 H   0  0  0  0  0  0  0  0  0  0  0  0
  1  2  2  0
  1  3  1  0
  1 18  1  0
  2  5  1  0
  2 19  1  0
  3  6  2  0
  3 20  1  0
  4  7  2  0
  4  9  1  0
  4 21  1  0
  5 11  2  0
  5 22  1  0
  6 11  1  0
  6 23  1  0
  7 12  1  0
  7 24  1  0
  8  9  2  0
  8 10  1  0
  8 25  1  0
  9 13  1  0
 10 12  2  0
 10 14  1  0
 11 15  1  0
 12 17  1  0
 13 15  1  0
 13 16  2  0
 14 26  1  0
 14 27  1  0
 14 28  1  0
 15 29  1  0
M  END
$$$$
