
     RDKit          3D

 41 42  0  0  0  0  0  0  0  0999 V2000
    4.2692   -2.8100   -6.0364 C   0  0  0  0  0  0  0  0  0  0  0  0
    4.9729   -2.0384   -8.1611 C   0  0  0  0  0  0  0  0  0  0  0  0
    3.7180   -3.5479   -4.8533 C   0  0  0  0  0  0  0  0  0  0  0  0
    6.2819   -4.9915    0.5261 C   0  0  0  0  0  0  0  0  0  0  0  0
    5.0369   -5.8276    0.2057 C   0  0  0  0  0  0  0  0  0  0  0  0
    6.8347   -4.3087   -0.7308 C   0  0  0  0  0  0  0  0  0  0  0  0
    3.9646   -4.9918   -0.5045 C   0  0  0  0  0  0  0  0  0  0  0  0
    5.7598   -3.4742   -1.4392 C   0  0  0  0  0  0  0  0  0  0  0  0
    4.5132   -4.3087   -1.7674 C   0  0  0  0  0  0  0  0  0  0  0  0
    3.9226   -1.6618  -12.1262 C   0  0  0  0  0  0  0  0  0  0  0  0
    3.1017   -0.3868  -10.0760 C   0  0  0  0  0  0  0  0  0  0  0  0
    3.4163   -3.4705   -2.4308 C   0  0  0  0  0  0  0  0  0  0  0  0
    3.7791   -1.6452  -10.6046 C   0  0  0  0  0  0  0  0  0  0  0  0
    4.8369   -1.6356   -5.9888 N   0  0  0  0  0  0  0  0  0  0  0  0
    5.2572   -1.1885   -7.2152 N   0  0  0  0  0  0  0  0  0  0  0  0
    3.8383   -2.8675   -3.6891 N   0  0  0  0  0  0  0  0  0  0  0  0
    3.2267   -4.6695   -4.9897 O   0  0  0  0  0  0  0  0  0  0  0  0
    6.1090   -0.3743   -9.9786 O   0  0  0  0  0  0  0  0  0  0  0  0
    4.1868   -3.5075   -7.6310 S   0  0  0  0  0  0  0  0  0  0  0  0
    5.5196   -1.7554   -9.8968 S   0  0  0  0  0  0  0  0  0  0  0  0
    7.0528   -5.6229    0.9827 H   0  0  0  0  0  0  0  0  0  0  0  0
    6.0225   -4.2253    1.2700 H   0  0  0  0  0  0  0  0  0  0  0  0
    5.3217   -6.6700   -0.4392 H   0  0  0  0  0  0  0  0  0  0  0  0
    4.6251   -6.2619    1.1241 H   0  0  0  0  0  0  0  0  0  0  0  0
    7.6901   -3.6737   -0.4733 H   0  0  0  0  0  0  0  0  0  0  0  0
    7.2101   -5.0740   -1.4238 H   0  0  0  0  0  0  0  0  0  0  0  0
    3.1064   -5.6228   -0.7655 H   0  0  0  0  0  0  0  0  0  0  0  0
    3.5908   -4.2225    0.1873 H   0  0  0  0  0  0  0  0  0  0  0  0
    5.4684   -2.6342   -0.7907 H   0  0  0  0  0  0  0  0  0  0  0  0
    6.1737   -3.0377   -2.3557 H   0  0  0  0  0  0  0  0  0  0  0  0
    4.7971   -5.0917   -2.4843 H   0  0  0  0  0  0  0  0  0  0  0  0
    4.4781   -0.7850  -12.4721 H   0  0  0  0  0  0  0  0  0  0  0  0
    4.4363   -2.5630  -12.4750 H   0  0  0  0  0  0  0  0  0  0  0  0
    2.9315   -1.6363  -12.5919 H   0  0  0  0  0  0  0  0  0  0  0  0
    3.6592    0.5024  -10.3808 H   0  0  0  0  0  0  0  0  0  0  0  0
    3.0361   -0.3894   -8.9846 H   0  0  0  0  0  0  0  0  0  0  0  0
    2.0866   -0.3200  -10.4820 H   0  0  0  0  0  0  0  0  0  0  0  0
    3.0937   -2.6637   -1.7652 H   0  0  0  0  0  0  0  0  0  0  0  0
    2.5461   -4.0954   -2.6426 H   0  0  0  0  0  0  0  0  0  0  0  0
    3.2741   -2.5534  -10.2570 H   0  0  0  0  0  0  0  0  0  0  0  0
    4.3091   -1.9687   -3.7109 H   0  0  0  0  0  0  0  0  0  0  0  0
  1  3  1  0
  1 14  2  0
  1 19  1  0
  2 15  2  0
  2 19  1  0
  2 20  1  0
  3 16  1  0
  3 17  2  0
  4  5  1  0
  4  6  1  0
  4 21  1  0
  4 22  1  0
  5  7  1  0
  5 23  1  0
  5 24  1  0
  6  8  1  0
  6 25  1  0
  6 26  1  0
  7  9  1  0
  7 27  1  0
  7 28  1  0
  8  9  1  0
  8 29  1  0
  8 30  1  0
  9 12  1  0
  9 31  1  0
 10 13  1  0
 10 32  1  0
 10 33  1  0
 10 34  1  0
 11 13  1  0
 11 35  1  0
 11 36  1  0
 11 37  1  0
 12 16  1  0
 12 38  1  0
 12 39  1  0
 20 13  1  6
 13 40  1  0
 14 15  1  0
 16 41  1  0
 18 20  2  0
M  END
$$$$
