
     RDKit          3D

 25 27  0  0  0  0  0  0  0  0999 V2000
    2.3632    4.5118    1.0700 C   0  0  0  0  0  0  0  0  0  0  0  0
    1.7164    4.6760    2.2924 C   0  0  0  0  0  0  0  0  0  0  0  0
    0.3675    2.6538    1.9240 C   0  0  0  0  0  0  0  0  0  0  0  0
    1.7935    1.8655   -1.3450 C   0  0  0  0  0  0  0  0  0  0  0  0
    1.0181    2.4672    0.6886 C   0  0  0  0  0  0  0  0  0  0  0  0
    0.8954    1.4857   -0.3713 C   0  0  0  0  0  0  0  0  0  0  0  0
    2.0055    3.4118    0.2829 C   0  0  0  0  0  0  0  0  0  0  0  0
    0.7338    3.7490    2.6939 C   0  0  0  0  0  0  0  0  0  0  0  0
   -1.4688    0.3941   -0.0529 C   0  0  0  0  0  0  0  0  0  0  0  0
   -1.1578   -0.4823    1.1871 C   0  0  0  0  0  0  0  0  0  0  0  0
    0.0390    0.2626   -0.4371 C   0  0  2  0  0  0  0  0  0  0  0  0
    2.4639    3.0144   -0.9601 N   0  0  0  0  0  0  0  0  0  0  0  0
    0.2086   -0.7493    0.6573 N   0  0  0  0  0  0  0  0  0  0  0  0
   -0.1440    4.0247    4.3844 Br  0  0  0  0  0  0  0  0  0  0  0  0
    3.1196    5.2228    0.7472 H   0  0  0  0  0  0  0  0  0  0  0  0
    1.9652    5.5140    2.9346 H   0  0  0  0  0  0  0  0  0  0  0  0
   -0.3998    1.9724    2.2707 H   0  0  0  0  0  0  0  0  0  0  0  0
    2.0128    1.3884   -2.2917 H   0  0  0  0  0  0  0  0  0  0  0  0
   -2.1339   -0.0849   -0.7749 H   0  0  0  0  0  0  0  0  0  0  0  0
   -1.8254    1.4072    0.1413 H   0  0  0  0  0  0  0  0  0  0  0  0
   -1.1824    0.0652    2.1379 H   0  0  0  0  0  0  0  0  0  0  0  0
   -1.7627   -1.3881    1.3035 H   0  0  0  0  0  0  0  0  0  0  0  0
    0.1947   -0.1980   -1.4199 H   0  0  0  0  0  0  0  0  0  0  0  0
    3.1537    3.5019   -1.5131 H   0  0  0  0  0  0  0  0  0  0  0  0
    0.9625   -0.5266    1.3037 H   0  0  0  0  0  0  0  0  0  0  0  0
  1  2  2  0
  1  7  1  0
  1 15  1  0
  2  8  1  0
  2 16  1  0
  3  5  1  0
  3  8  2  0
  3 17  1  0
  4  6  2  0
  4 12  1  0
  4 18  1  0
  5  6  1  0
  5  7  2  0
  6 11  1  0
  7 12  1  0
  8 14  1  0
  9 10  1  0
  9 11  1  0
  9 19  1  0
  9 20  1  0
 10 13  1  0
 10 21  1  0
 10 22  1  0
 11 13  1  0
 11 23  1  6
 12 24  1  0
 13 25  1  0
M  END
$$$$
