
     RDKit          3D

 68 70  0  0  0  0  0  0  0  0999 V2000
    8.7412    0.6867   -3.1238 C   0  0  0  0  0  0  0  0  0  0  0  0
    6.3320    7.4970    0.3011 C   0  0  0  0  0  0  0  0  0  0  0  0
    8.1733    0.4972   -1.8583 C   0  0  0  0  0  0  0  0  0  0  0  0
    7.9790    1.2339   -4.1603 C   0  0  0  0  0  0  0  0  0  0  0  0
    7.1569    6.3898    0.0694 C   0  0  0  0  0  0  0  0  0  0  0  0
    5.0988    7.5981   -0.3498 C   0  0  0  0  0  0  0  0  0  0  0  0
    6.8449    0.8608   -1.6302 C   0  0  0  0  0  0  0  0  0  0  0  0
    6.6513    1.6053   -3.9288 C   0  0  0  0  0  0  0  0  0  0  0  0
    6.7460    5.3843   -0.8074 C   0  0  0  0  0  0  0  0  0  0  0  0
    4.6822    6.5878   -1.2217 C   0  0  0  0  0  0  0  0  0  0  0  0
    6.0778    1.4235   -2.6633 C   0  0  0  0  0  0  0  0  0  0  0  0
    5.5017    5.4749   -1.4524 C   0  0  0  0  0  0  0  0  0  0  0  0
    0.7503    1.0949    2.6073 C   0  0  0  0  0  0  0  0  0  0  0  0
    0.4447   -1.1923    5.3802 C   0  0  0  0  0  0  0  0  0  0  0  0
   -0.2940   -0.3923    4.2951 C   0  0  0  0  0  0  0  0  0  0  0  0
    2.0486    0.3020    4.6493 C   0  0  0  0  0  0  0  0  0  0  0  0
   -0.9465   -1.3281    3.2740 C   0  0  0  0  0  0  0  0  0  0  0  0
   -1.3127    0.5785    4.9092 C   0  0  0  0  0  0  0  0  0  0  0  0
    2.5249    1.6731    5.1253 C   0  0  0  0  0  0  0  0  0  0  0  0
    3.1790   -0.5329    4.0371 C   0  0  0  0  0  0  0  0  0  0  0  0
    1.5504    3.9710    1.6432 C   0  0  0  0  0  0  0  0  0  0  0  0
    4.6662    1.8574   -2.3818 C   0  0  0  0  0  0  0  0  0  0  0  0
    5.0604    4.3578   -2.3555 C   0  0  0  0  0  0  0  0  0  0  0  0
    3.2622    2.4741    0.4479 C   0  0  0  0  0  0  0  0  0  0  0  0
    3.3408    3.3347   -0.8093 C   0  0  0  0  0  0  0  0  0  0  0  0
    1.8910    2.5758    1.1266 C   0  0  1  0  0  0  0  0  0  0  0  0
    0.8655    0.3606    3.7336 N   0  0  0  0  0  0  0  0  0  0  0  0
    4.6498    3.1321   -1.5391 N   0  0  0  0  0  0  0  0  0  0  0  0
   -0.2724    1.2693    1.9555 O   0  0  0  0  0  0  0  0  0  0  0  0
    1.5162   -0.3529    5.7989 O   0  0  0  0  0  0  0  0  0  0  0  0
    1.9638    1.6480    2.2242 O   0  0  0  0  0  0  0  0  0  0  0  0
    9.7724    0.3969   -3.3035 H   0  0  0  0  0  0  0  0  0  0  0  0
    6.6556    8.2829    0.9775 H   0  0  0  0  0  0  0  0  0  0  0  0
    8.7597    0.0551   -1.0581 H   0  0  0  0  0  0  0  0  0  0  0  0
    8.4148    1.3692   -5.1458 H   0  0  0  0  0  0  0  0  0  0  0  0
    8.1229    6.3188    0.5607 H   0  0  0  0  0  0  0  0  0  0  0  0
    4.4636    8.4629   -0.1822 H   0  0  0  0  0  0  0  0  0  0  0  0
    6.3993    0.6790   -0.6526 H   0  0  0  0  0  0  0  0  0  0  0  0
    6.0591    2.0228   -4.7404 H   0  0  0  0  0  0  0  0  0  0  0  0
    7.4063    4.5413   -1.0091 H   0  0  0  0  0  0  0  0  0  0  0  0
    3.7263    6.6769   -1.7337 H   0  0  0  0  0  0  0  0  0  0  0  0
   -0.1793   -1.3979    6.2515 H   0  0  0  0  0  0  0  0  0  0  0  0
    0.8236   -2.1422    4.9789 H   0  0  0  0  0  0  0  0  0  0  0  0
   -1.4979   -0.7688    2.5183 H   0  0  0  0  0  0  0  0  0  0  0  0
   -1.6442   -1.9943    3.7925 H   0  0  0  0  0  0  0  0  0  0  0  0
   -0.1927   -1.9451    2.7746 H   0  0  0  0  0  0  0  0  0  0  0  0
   -1.6992    1.2568    4.1454 H   0  0  0  0  0  0  0  0  0  0  0  0
   -0.8507    1.1650    5.7087 H   0  0  0  0  0  0  0  0  0  0  0  0
   -2.1551    0.0223    5.3328 H   0  0  0  0  0  0  0  0  0  0  0  0
    1.6744    2.2630    5.4751 H   0  0  0  0  0  0  0  0  0  0  0  0
    3.0403    2.2151    4.3326 H   0  0  0  0  0  0  0  0  0  0  0  0
    3.2125    1.5265    5.9624 H   0  0  0  0  0  0  0  0  0  0  0  0
    2.8212   -1.5334    3.7804 H   0  0  0  0  0  0  0  0  0  0  0  0
    3.9921   -0.6289    4.7618 H   0  0  0  0  0  0  0  0  0  0  0  0
    3.5609   -0.0571    3.1313 H   0  0  0  0  0  0  0  0  0  0  0  0
    2.3282    4.3380    2.3208 H   0  0  0  0  0  0  0  0  0  0  0  0
    0.6014    3.9380    2.1824 H   0  0  0  0  0  0  0  0  0  0  0  0
    1.4326    4.6856    0.8215 H   0  0  0  0  0  0  0  0  0  0  0  0
    4.1048    2.0831   -3.2903 H   0  0  0  0  0  0  0  0  0  0  0  0
    4.1181    1.1055   -1.8131 H   0  0  0  0  0  0  0  0  0  0  0  0
    4.1954    4.6214   -2.9671 H   0  0  0  0  0  0  0  0  0  0  0  0
    5.8692    4.0243   -3.0065 H   0  0  0  0  0  0  0  0  0  0  0  0
    4.0389    2.7892    1.1562 H   0  0  0  0  0  0  0  0  0  0  0  0
    3.4371    1.4188    0.2149 H   0  0  0  0  0  0  0  0  0  0  0  0
    2.5454    3.1028   -1.5227 H   0  0  0  0  0  0  0  0  0  0  0  0
    3.2844    4.3923   -0.5562 H   0  0  0  0  0  0  0  0  0  0  0  0
    1.1101    2.2361    0.4405 H   0  0  0  0  0  0  0  0  0  0  0  0
    5.3791    3.0186   -0.8261 H   0  0  0  0  0  0  0  0  0  0  0  0
  1  3  2  0
  1  4  1  0
  1 32  1  0
  2  5  2  0
  2  6  1  0
  2 33  1  0
  3  7  1  0
  3 34  1  0
  4  8  2  0
  4 35  1  0
  5  9  1  0
  5 36  1  0
  6 10  2  0
  6 37  1  0
  7 11  2  0
  7 38  1  0
  8 11  1  0
  8 39  1  0
  9 12  2  0
  9 40  1  0
 10 12  1  0
 10 41  1  0
 11 22  1  0
 12 23  1  0
 13 27  1  0
 13 29  2  0
 13 31  1  0
 14 15  1  0
 14 30  1  0
 14 42  1  0
 14 43  1  0
 15 17  1  0
 15 18  1  0
 15 27  1  0
 16 19  1  0
 16 20  1  0
 16 27  1  0
 16 30  1  0
 17 44  1  0
 17 45  1  0
 17 46  1  0
 18 47  1  0
 18 48  1  0
 18 49  1  0
 19 50  1  0
 19 51  1  0
 19 52  1  0
 20 53  1  0
 20 54  1  0
 20 55  1  0
 21 26  1  0
 21 56  1  0
 21 57  1  0
 21 58  1  0
 22 28  1  0
 22 59  1  0
 22 60  1  0
 23 28  1  0
 23 61  1  0
 23 62  1  0
 24 25  1  0
 24 26  1  0
 24 63  1  0
 24 64  1  0
 25 28  1  0
 25 65  1  0
 25 66  1  0
 26 31  1  0
 26 67  1  6
 28 68  1  0
M  CHG  1  28   1
M  END
$$$$
