
     RDKit          3D

 28 28  0  0  0  0  0  0  0  0999 V2000
    5.3737   -0.3985    1.1592 C   0  0  0  0  0  0  0  0  0  0  0  0
    5.5205   -0.4510    3.5702 C   0  0  0  0  0  0  0  0  0  0  0  0
    4.1316    0.2298    1.2485 C   0  0  0  0  0  0  0  0  0  0  0  0
    6.0682   -0.7389    2.3201 C   0  0  0  0  0  0  0  0  0  0  0  0
    3.5839    0.5177    2.4986 C   0  0  0  0  0  0  0  0  0  0  0  0
    4.2783    0.1773    3.6595 C   0  0  0  0  0  0  0  0  0  0  0  0
    3.4174    0.5797    0.0066 C   0  0  0  0  0  0  0  0  0  0  0  0
    3.4267    0.5677   -2.4970 C   0  0  0  0  0  0  0  0  0  0  0  0
    2.6451   -1.4626   -1.2485 C   0  0  0  0  0  0  0  0  0  0  0  0
    1.2200    0.2893    2.6239 C   0  0  0  0  0  0  0  0  0  0  0  0
    3.6207   -0.2835   -1.2454 C   0  0  0  0  0  0  0  0  0  0  0  0
    2.6664    1.5569   -0.0576 O   0  0  0  0  0  0  0  0  0  0  0  0
    7.2802   -1.3516    2.2326 O   0  0  0  0  0  0  0  0  0  0  0  0
    2.3676    1.1327    2.5767 O   0  0  0  0  0  0  0  0  0  0  0  0
    3.6266    0.5204    5.2200 Cl  0  0  0  0  0  0  0  0  0  0  0  0
    5.8062   -0.6251    0.1873 H   0  0  0  0  0  0  0  0  0  0  0  0
    6.0699   -0.7206    4.4695 H   0  0  0  0  0  0  0  0  0  0  0  0
    2.4240    1.0090   -2.5240 H   0  0  0  0  0  0  0  0  0  0  0  0
    3.5575   -0.0350   -3.4018 H   0  0  0  0  0  0  0  0  0  0  0  0
    4.1449    1.3928   -2.5357 H   0  0  0  0  0  0  0  0  0  0  0  0
    1.6091   -1.1080   -1.2588 H   0  0  0  0  0  0  0  0  0  0  0  0
    2.7750   -2.0979   -0.3652 H   0  0  0  0  0  0  0  0  0  0  0  0
    2.7977   -2.0899   -2.1336 H   0  0  0  0  0  0  0  0  0  0  0  0
    0.3180    0.9032    2.6847 H   0  0  0  0  0  0  0  0  0  0  0  0
    1.2855   -0.3682    3.4944 H   0  0  0  0  0  0  0  0  0  0  0  0
    1.1857   -0.3154    1.7146 H   0  0  0  0  0  0  0  0  0  0  0  0
    4.6263   -0.7158   -1.2350 H   0  0  0  0  0  0  0  0  0  0  0  0
    7.6353   -1.5231    3.1194 H   0  0  0  0  0  0  0  0  0  0  0  0
  1  3  2  0
  1  4  1  0
  1 16  1  0
  2  4  2  0
  2  6  1  0
  2 17  1  0
  3  5  1  0
  3  7  1  0
  4 13  1  0
  5  6  2  0
  5 14  1  0
  6 15  1  0
  7 11  1  0
  7 12  2  0
  8 11  1  0
  8 18  1  0
  8 19  1  0
  8 20  1  0
  9 11  1  0
  9 21  1  0
  9 22  1  0
  9 23  1  0
 10 14  1  0
 10 24  1  0
 10 25  1  0
 10 26  1  0
 11 27  1  0
 13 28  1  0
M  END
$$$$
