
     RDKit          3D

 35 37  0  0  0  0  0  0  0  0999 V2000
    7.2739    2.8874    1.3960 C   0  0  0  0  0  0  0  0  0  0  0  0
    5.8865    4.8871   -1.4078 C   0  0  0  0  0  0  0  0  0  0  0  0
    1.0877   -1.8491   -0.1263 C   0  0  0  0  0  0  0  0  0  0  0  0
    0.9689   -0.4823    0.0935 C   0  0  0  0  0  0  0  0  0  0  0  0
    4.5381    4.5327   -1.3655 C   0  0  0  0  0  0  0  0  0  0  0  0
    6.7814    4.3369   -0.4902 C   0  0  0  0  0  0  0  0  0  0  0  0
    2.3364   -2.4562   -0.0309 C   0  0  0  0  0  0  0  0  0  0  0  0
    2.0939    0.2761    0.4273 C   0  0  0  0  0  0  0  0  0  0  0  0
    4.0845    3.6282   -0.4053 C   0  0  0  0  0  0  0  0  0  0  0  0
    6.3279    3.4324    0.4699 C   0  0  0  0  0  0  0  0  0  0  0  0
    3.4772   -1.7024    0.2914 C   0  0  0  0  0  0  0  0  0  0  0  0
    3.3536   -0.3259    0.5755 C   0  0  0  0  0  0  0  0  0  0  0  0
    4.9794    3.0780    0.5124 C   0  0  0  0  0  0  0  0  0  0  0  0
    4.8030   -2.4147    0.3793 C   0  0  0  0  0  0  0  0  0  0  0  0
    5.9714   -1.4502    0.2365 C   0  0  0  0  0  0  0  0  0  0  0  0
    5.7938   -0.2828    1.1918 C   0  0  0  0  0  0  0  0  0  0  0  0
    8.0407    2.4455    2.1466 N   0  0  0  0  0  0  0  0  0  0  0  0
    4.5510    0.4683    0.8450 N   0  0  0  0  0  0  0  0  0  0  0  0
    5.2529    1.9440    2.8388 O   0  0  0  0  0  0  0  0  0  0  0  0
    2.9401    2.1966    1.8720 O   0  0  0  0  0  0  0  0  0  0  0  0
    4.3535    1.9387    1.7061 S   0  0  0  0  0  0  0  0  0  0  0  0
    6.2394    5.5914   -2.1555 H   0  0  0  0  0  0  0  0  0  0  0  0
    0.2129   -2.4387   -0.3833 H   0  0  0  0  0  0  0  0  0  0  0  0
    0.0001    0.0001   -0.0004 H   0  0  0  0  0  0  0  0  0  0  0  0
    3.8414    4.9611   -2.0801 H   0  0  0  0  0  0  0  0  0  0  0  0
    7.8293    4.6242   -0.5376 H   0  0  0  0  0  0  0  0  0  0  0  0
    2.4207   -3.5241   -0.2180 H   0  0  0  0  0  0  0  0  0  0  0  0
    1.9503    1.3431    0.5658 H   0  0  0  0  0  0  0  0  0  0  0  0
    3.0314    3.3606   -0.3832 H   0  0  0  0  0  0  0  0  0  0  0  0
    4.8579   -2.9272    1.3476 H   0  0  0  0  0  0  0  0  0  0  0  0
    4.8762   -3.1762   -0.4062 H   0  0  0  0  0  0  0  0  0  0  0  0
    6.9114   -1.9724    0.4464 H   0  0  0  0  0  0  0  0  0  0  0  0
    6.0265   -1.0808   -0.7957 H   0  0  0  0  0  0  0  0  0  0  0  0
    5.7385   -0.6310    2.2301 H   0  0  0  0  0  0  0  0  0  0  0  0
    6.6551    0.3877    1.0962 H   0  0  0  0  0  0  0  0  0  0  0  0
  1 10  1  0
  1 17  3  0
  2  5  2  0
  2  6  1  0
  2 22  1  0
  3  4  2  0
  3  7  1  0
  3 23  1  0
  4  8  1  0
  4 24  1  0
  5  9  1  0
  5 25  1  0
  6 10  2  0
  6 26  1  0
  7 11  2  0
  7 27  1  0
  8 12  2  0
  8 28  1  0
  9 13  2  0
  9 29  1  0
 10 13  1  0
 11 12  1  0
 11 14  1  0
 12 18  1  0
 13 21  1  0
 14 15  1  0
 14 30  1  0
 14 31  1  0
 15 16  1  0
 15 32  1  0
 15 33  1  0
 16 18  1  0
 16 34  1  0
 16 35  1  0
 18 21  1  0
 19 21  2  0
 20 21  2  0
M  END
$$$$
