
     RDKit          3D

 20 19  0  0  0  0  0  0  0  0999 V2000
   -1.4753   -1.6377   -0.5749 C   0  0  0  0  0  0  0  0  0  0  0  0
   -2.3759   -0.5856   -1.1607 C   0  0  0  0  0  0  0  0  0  0  0  0
    0.0602    2.6678   -1.0227 C   0  0  0  0  0  0  0  0  0  0  0  0
    2.6967    0.2846    0.9381 C   0  0  0  0  0  0  0  0  0  0  0  0
   -0.5033   -1.1007    0.2501 N   0  0  0  0  0  0  0  0  0  0  0  0
   -1.6160   -2.8326   -0.8198 O   0  0  0  0  0  0  0  0  0  0  0  0
   -1.6237    1.1539    1.1738 O   0  0  0  0  0  0  0  0  0  0  0  0
   -0.0982    1.2644   -0.9077 O   0  0  0  0  0  0  0  0  0  0  0  0
   -0.3749    0.5881    0.5456 P   0  0  2  0  0  0  0  0  0  0  0  0
    1.2621    0.9238    1.8253 S   0  0  0  0  0  0  0  0  0  0  0  0
   -1.9650   -0.2334   -2.1110 H   0  0  0  0  0  0  0  0  0  0  0  0
   -2.4529    0.2600   -0.4717 H   0  0  0  0  0  0  0  0  0  0  0  0
   -3.3739   -1.0012   -1.3257 H   0  0  0  0  0  0  0  0  0  0  0  0
    0.2367    2.9308   -2.0685 H   0  0  0  0  0  0  0  0  0  0  0  0
    0.9031    2.9918   -0.4071 H   0  0  0  0  0  0  0  0  0  0  0  0
   -0.8521    3.1581   -0.6750 H   0  0  0  0  0  0  0  0  0  0  0  0
    3.5980    0.4220    1.5405 H   0  0  0  0  0  0  0  0  0  0  0  0
    2.8158    0.8182   -0.0082 H   0  0  0  0  0  0  0  0  0  0  0  0
    2.5623   -0.7803    0.7335 H   0  0  0  0  0  0  0  0  0  0  0  0
    0.1594   -1.7277    0.6981 H   0  0  0  0  0  0  0  0  0  0  0  0
  1  2  1  0
  1  5  1  0
  1  6  2  0
  2 11  1  0
  2 12  1  0
  2 13  1  0
  3  8  1  0
  3 14  1  0
  3 15  1  0
  3 16  1  0
  4 10  1  0
  4 17  1  0
  4 18  1  0
  4 19  1  0
  5  9  1  0
  5 20  1  0
  7  9  2  0
  9  8  1  6
  9 10  1  0
M  END
$$$$
