
     RDKit          3D

 35 37  0  0  0  0  0  0  0  0999 V2000
   -0.1950   -0.1946   -1.0909 C   0  0  0  0  0  0  0  0  0  0  0  0
   -0.1245   -1.4776   -0.5206 C   0  0  0  0  0  0  0  0  0  0  0  0
    4.1622   -5.5412   -5.0165 C   0  0  0  0  0  0  0  0  0  0  0  0
    2.9547   -6.1142   -3.0053 C   0  0  0  0  0  0  0  0  0  0  0  0
   -0.2252   -0.0246   -2.4764 C   0  0  0  0  0  0  0  0  0  0  0  0
    2.9636   -5.4602   -5.7241 C   0  0  0  0  0  0  0  0  0  0  0  0
    1.7446   -6.0324   -3.6935 C   0  0  0  0  0  0  0  0  0  0  0  0
    4.1765   -5.8677   -3.6502 C   0  0  0  0  0  0  0  0  0  0  0  0
   -0.0835   -2.6347   -1.3032 C   0  0  0  0  0  0  0  0  0  0  0  0
   -0.1181   -2.4697   -2.7005 C   0  0  0  0  0  0  0  0  0  0  0  0
   -0.1837   -1.1751   -3.2662 C   0  0  0  0  0  0  0  0  0  0  0  0
    1.7650   -5.7050   -5.0499 C   0  0  0  0  0  0  0  0  0  0  0  0
   -0.1225   -3.0712   -4.8276 C   0  0  0  0  0  0  0  0  0  0  0  0
    5.4817   -5.9846   -2.9006 C   0  0  0  0  0  0  0  0  0  0  0  0
   -0.0056   -4.0169   -0.7073 C   0  0  0  0  0  0  0  0  0  0  0  0
   -0.0856   -3.5177   -3.6155 N   0  0  0  0  0  0  0  0  0  0  0  0
   -0.1009   -3.8690   -5.9565 N   0  0  0  0  0  0  0  0  0  0  0  0
   -0.8230   -6.2254   -5.1801 O   0  0  0  0  0  0  0  0  0  0  0  0
    0.4533   -5.8296   -7.3601 O   0  0  0  0  0  0  0  0  0  0  0  0
   -0.2045   -1.3012   -5.0236 S   0  0  0  0  0  0  0  0  0  0  0  0
    0.2263   -5.5641   -5.9388 S   0  0  0  0  0  0  0  0  0  0  0  0
   -0.2259    0.6787   -0.4454 H   0  0  0  0  0  0  0  0  0  0  0  0
   -0.1015   -1.5743    0.5622 H   0  0  0  0  0  0  0  0  0  0  0  0
    5.1001   -5.3537   -5.5337 H   0  0  0  0  0  0  0  0  0  0  0  0
    2.9483   -6.3676   -1.9478 H   0  0  0  0  0  0  0  0  0  0  0  0
   -0.2785    0.9664   -2.9171 H   0  0  0  0  0  0  0  0  0  0  0  0
    2.9558   -5.2265   -6.7844 H   0  0  0  0  0  0  0  0  0  0  0  0
    0.7967   -6.2082   -3.1987 H   0  0  0  0  0  0  0  0  0  0  0  0
    5.8673   -7.0096   -2.9574 H   0  0  0  0  0  0  0  0  0  0  0  0
    6.2447   -5.3227   -3.3197 H   0  0  0  0  0  0  0  0  0  0  0  0
    5.3580   -5.7384   -1.8423 H   0  0  0  0  0  0  0  0  0  0  0  0
   -0.8727   -4.6182   -1.0000 H   0  0  0  0  0  0  0  0  0  0  0  0
    0.8829   -4.5450   -1.0690 H   0  0  0  0  0  0  0  0  0  0  0  0
    0.0360   -3.9735    0.3842 H   0  0  0  0  0  0  0  0  0  0  0  0
    0.1007   -3.4486   -6.8582 H   0  0  0  0  0  0  0  0  0  0  0  0
  1  2  2  0
  1  5  1  0
  1 22  1  0
  2  9  1  0
  2 23  1  0
  3  6  2  0
  3  8  1  0
  3 24  1  0
  4  7  1  0
  4  8  2  0
  4 25  1  0
  5 11  2  0
  5 26  1  0
  6 12  1  0
  6 27  1  0
  7 12  2  0
  7 28  1  0
  8 14  1  0
  9 10  2  0
  9 15  1  0
 10 11  1  0
 10 16  1  0
 11 20  1  0
 12 21  1  0
 13 16  2  0
 13 17  1  0
 13 20  1  0
 14 29  1  0
 14 30  1  0
 14 31  1  0
 15 32  1  0
 15 33  1  0
 15 34  1  0
 17 21  1  0
 17 35  1  0
 18 21  2  0
 19 21  2  0
M  END
$$$$
