
     RDKit          3D

 16 17  0  0  0  0  0  0  0  0999 V2000
    0.2834   -1.1078    1.5426 C   0  0  0  0  0  0  0  0  0  0  0  0
    2.3931   -6.9512    2.9210 C   0  0  0  0  0  0  0  0  0  0  0  0
   -0.7402   -0.9862    0.6287 C   0  0  0  0  0  0  0  0  0  0  0  0
    3.1024   -5.8837    3.4247 C   0  0  0  0  0  0  0  0  0  0  0  0
   -0.0296   -3.2371    1.1252 C   0  0  0  0  0  0  0  0  0  0  0  0
    1.1665   -5.3254    2.0390 C   0  0  0  0  0  0  0  0  0  0  0  0
    0.0945   -4.7151    1.2051 C   0  0  0  0  0  0  0  0  0  0  0  0
    0.6810   -2.3877    1.8214 N   0  0  0  0  0  0  0  0  0  0  0  0
    1.3231   -6.6278    2.1398 N   0  0  0  0  0  0  0  0  0  0  0  0
   -0.7004   -5.4137    0.5809 O   0  0  0  0  0  0  0  0  0  0  0  0
   -1.2619   -2.5374    0.0927 S   0  0  0  0  0  0  0  0  0  0  0  0
    2.3901   -4.4071    2.9152 S   0  0  0  0  0  0  0  0  0  0  0  0
    0.7775   -0.2807    2.0393 H   0  0  0  0  0  0  0  0  0  0  0  0
    2.6314   -7.9944    3.0971 H   0  0  0  0  0  0  0  0  0  0  0  0
   -1.1993   -0.0782    0.2589 H   0  0  0  0  0  0  0  0  0  0  0  0
    3.9774   -5.9027    4.0628 H   0  0  0  0  0  0  0  0  0  0  0  0
  1  3  2  0
  1  8  1  0
  1 13  1  0
  2  4  2  0
  2  9  1  0
  2 14  1  0
  3 11  1  0
  3 15  1  0
  4 12  1  0
  4 16  1  0
  5  7  1  0
  5  8  2  0
  5 11  1  0
  6  7  1  0
  6  9  2  0
  6 12  1  0
  7 10  2  0
M  END
$$$$
