
     RDKit          3D

 26 27  0  0  0  0  0  0  0  0999 V2000
   -3.2184    0.1823    1.7321 C   0  0  0  0  0  0  0  0  0  0  0  0
   -2.0057    2.3549    1.3459 C   0  0  0  0  0  0  0  0  0  0  0  0
   -2.8421    0.2874    3.2123 C   0  0  0  0  0  0  0  0  0  0  0  0
   -1.6705    2.3831    2.8394 C   0  0  0  0  0  0  0  0  0  0  0  0
   -0.9162   -1.1338    0.1828 C   0  0  0  0  0  0  0  0  0  0  0  0
    0.1195    0.7092   -0.0916 C   0  0  0  0  0  0  0  0  0  0  0  0
   -2.2150    0.9233    0.8329 C   0  0  0  0  0  0  0  0  0  0  0  0
    0.4239   -0.7470   -0.4422 C   0  0  0  0  0  0  0  0  0  0  0  0
   -2.7306    1.7021    3.5950 N   0  0  0  0  0  0  0  0  0  0  0  0
   -0.9397    0.2080    0.8273 N   0  0  0  0  0  0  0  0  0  0  0  0
    0.6001   -1.0426   -1.7674 F   0  0  0  0  0  0  0  0  0  0  0  0
    1.5105   -1.2597    0.2232 F   0  0  0  0  0  0  0  0  0  0  0  0
   -3.2767   -0.8728    1.4401 H   0  0  0  0  0  0  0  0  0  0  0  0
   -4.2124    0.6169    1.5783 H   0  0  0  0  0  0  0  0  0  0  0  0
   -2.9280    2.9207    1.1728 H   0  0  0  0  0  0  0  0  0  0  0  0
   -1.2099    2.8500    0.7769 H   0  0  0  0  0  0  0  0  0  0  0  0
   -3.6277   -0.1725    3.8215 H   0  0  0  0  0  0  0  0  0  0  0  0
   -1.9068   -0.2717    3.3866 H   0  0  0  0  0  0  0  0  0  0  0  0
   -0.6787    1.9243    2.9956 H   0  0  0  0  0  0  0  0  0  0  0  0
   -1.6169    3.4224    3.1811 H   0  0  0  0  0  0  0  0  0  0  0  0
   -1.6856   -1.2574   -0.5944 H   0  0  0  0  0  0  0  0  0  0  0  0
   -0.9165   -1.9861    0.8653 H   0  0  0  0  0  0  0  0  0  0  0  0
    0.9186    1.2851    0.3793 H   0  0  0  0  0  0  0  0  0  0  0  0
   -0.2784    1.2410   -0.9692 H   0  0  0  0  0  0  0  0  0  0  0  0
   -2.6251    0.9681   -0.1949 H   0  0  0  0  0  0  0  0  0  0  0  0
   -2.5179    1.7600    4.5888 H   0  0  0  0  0  0  0  0  0  0  0  0
  1  3  1  0
  1  7  1  0
  1 13  1  0
  1 14  1  0
  2  4  1  0
  2  7  1  0
  2 15  1  0
  2 16  1  0
  3  9  1  0
  3 17  1  0
  3 18  1  0
  4  9  1  0
  4 19  1  0
  4 20  1  0
  5  8  1  0
  5 10  1  0
  5 21  1  0
  5 22  1  0
  6  8  1  0
  6 10  1  0
  6 23  1  0
  6 24  1  0
  7 10  1  0
  7 25  1  0
  8 11  1  0
  8 12  1  0
  9 26  1  0
M  END
$$$$
