
     RDKit          3D

 27 28  0  0  0  0  0  0  0  0999 V2000
   -2.8616    3.2910    3.0863 C   0  0  0  0  0  0  0  0  0  0  0  0
   -2.6605    2.2703    4.0235 C   0  0  0  0  0  0  0  0  0  0  0  0
   -2.2853    3.1841    1.8197 C   0  0  0  0  0  0  0  0  0  0  0  0
   -1.8852    1.1580    3.6967 C   0  0  0  0  0  0  0  0  0  0  0  0
   -1.5229    2.0611    1.4759 C   0  0  0  0  0  0  0  0  0  0  0  0
   -1.3195    1.0444    2.4177 C   0  0  0  0  0  0  0  0  0  0  0  0
   -1.3008   -1.3710    2.0488 C   0  0  0  0  0  0  0  0  0  0  0  0
    0.4100   -0.0251    1.0290 C   0  0  0  0  0  0  0  0  0  0  0  0
   -0.3704   -2.5689    2.1840 C   0  0  0  0  0  0  0  0  0  0  0  0
    1.4271   -1.1566    1.1199 C   0  0  0  0  0  0  0  0  0  0  0  0
   -0.5351   -0.1288    2.1287 N   0  0  0  0  0  0  0  0  0  0  0  0
    0.6945   -2.4880    1.1022 N   0  0  0  0  0  0  0  0  0  0  0  0
   -3.4554    4.1624    3.3456 H   0  0  0  0  0  0  0  0  0  0  0  0
   -3.0908    2.3505    5.0177 H   0  0  0  0  0  0  0  0  0  0  0  0
   -2.4339    3.9714    1.0861 H   0  0  0  0  0  0  0  0  0  0  0  0
   -1.6960    0.3881    4.4407 H   0  0  0  0  0  0  0  0  0  0  0  0
   -1.1038    1.9953    0.4764 H   0  0  0  0  0  0  0  0  0  0  0  0
   -1.8735   -1.4439    1.1043 H   0  0  0  0  0  0  0  0  0  0  0  0
   -2.0258   -1.4140    2.8623 H   0  0  0  0  0  0  0  0  0  0  0  0
    0.9561    0.9179    1.1024 H   0  0  0  0  0  0  0  0  0  0  0  0
   -0.0749   -0.0484    0.0344 H   0  0  0  0  0  0  0  0  0  0  0  0
    0.1579   -2.5519    3.1386 H   0  0  0  0  0  0  0  0  0  0  0  0
   -0.8925   -3.5198    2.0597 H   0  0  0  0  0  0  0  0  0  0  0  0
    2.1247   -1.1559    0.2799 H   0  0  0  0  0  0  0  0  0  0  0  0
    1.9749   -1.1179    2.0627 H   0  0  0  0  0  0  0  0  0  0  0  0
    0.2451   -2.6073    0.1858 H   0  0  0  0  0  0  0  0  0  0  0  0
    1.3620   -3.2610    1.2025 H   0  0  0  0  0  0  0  0  0  0  0  0
  1  2  2  0
  1  3  1  0
  1 13  1  0
  2  4  1  0
  2 14  1  0
  3  5  2  0
  3 15  1  0
  4  6  2  0
  4 16  1  0
  5  6  1  0
  5 17  1  0
  6 11  1  0
  7  9  1  0
  7 11  1  0
  7 18  1  0
  7 19  1  0
  8 10  1  0
  8 11  1  0
  8 20  1  0
  8 21  1  0
  9 12  1  0
  9 22  1  0
  9 23  1  0
 10 12  1  0
 10 24  1  0
 10 25  1  0
 12 26  1  0
 12 27  1  0
M  CHG  1  12   1
M  END
$$$$
