
  -OEChem-04072213403D

 15 16  0     1  0  0  0  0  0999 V2000
    1.7911   -1.6124   -0.4622 C   0  0  0  0  0  0  0  0  0  0  0  0
    0.4899   -1.8280   -0.2355 C   0  0  0  0  0  0  0  0  0  0  0  0
   -1.8134    1.6742    0.4711 C   0  0  0  0  0  0  0  0  0  0  0  0
    2.3781   -0.3635   -0.4738 N   0  0  0  0  0  0  0  0  0  0  0  0
   -2.4787    0.5104    0.5042 N   0  0  0  0  0  0  0  0  0  0  0  0
    1.7332    0.7042   -0.2690 N   0  0  0  0  0  0  0  0  0  0  0  0
   -0.4568    1.7877    0.2258 N   0  0  0  0  0  0  0  0  0  0  0  0
   -1.7400   -0.7418    0.2676 N   0  0  0  0  0  0  0  0  0  0  0  0
   -0.2943   -0.7276   -0.0020 N   0  0  3  0  0  0  0  0  0  0  0  0
    0.3907    0.5970   -0.0261 N   0  0  0  0  0  0  0  0  0  0  0  0
    2.4578   -2.4463   -0.6530 H   0  0  0  0  0  0  0  0  0  0  0  0
    0.0330   -2.8086   -0.2266 H   0  0  0  0  0  0  0  0  0  0  0  0
   -2.4022    2.5658    0.6513 H   0  0  0  0  0  0  0  0  0  0  0  0
   -0.0258    2.7043    0.2165 H   0  0  0  0  0  0  0  0  0  0  0  0
   -2.2391   -1.6227    0.2911 H   0  0  0  0  0  0  0  0  0  0  0  0
  1  2  2  0  0  0  0
  1  4  1  0  0  0  0
  1 11  1  0  0  0  0
  2  9  1  0  0  0  0
  2 12  1  0  0  0  0
  3  5  2  0  0  0  0
  3  7  1  0  0  0  0
  3 13  1  0  0  0  0
  4  6  2  0  0  0  0
  5  8  1  0  0  0  0
  6 10  1  0  0  0  0
  7 10  1  0  0  0  0
  7 14  1  0  0  0  0
  8  9  1  0  0  0  0
  8 15  1  0  0  0  0
  9 10  1  0  0  0  0
M  END
$$$$
